
---------- Begin Simulation Statistics ----------
simSeconds                                   6.643541                       # Number of seconds simulated (Second)
simTicks                                 6643541310000                       # Number of ticks simulated (Tick)
finalTick                                6643544852000                       # Number of ticks from beginning of simulation (restored from checkpoints and never reset) (Tick)
simFreq                                  1000000000000                       # The number of ticks per simulated second ((Tick/Second))
hostSeconds                                    395.43                       # Real time elapsed on the host (Second)
hostTickRate                              16800642558                       # The number of ticks simulated per host second (ticks/s) ((Tick/Second))
hostMemory                                    4642268                       # Number of bytes of host memory used (Byte)
simInsts                                     93737156                       # Number of instructions simulated (Count)
simOps                                      101676876                       # Number of ops (including micro ops) simulated (Count)
hostInstRate                                   237049                       # Simulator instruction rate (inst/s) ((Count/Second))
hostOpRate                                     257127                       # Simulator op (including micro ops) rate (op/s) ((Count/Second))
system.bridge.power_state.pwrStateResidencyTicks::UNDEFINED 6643544852000                       # Cumulative time (in ticks) in various power states (Tick)
system.bridge.power_state.pwrStateResidencyTicks::ON 6643544852000                       # Cumulative time (in ticks) in various power states (Tick)
system.bridge.power_state.pwrStateResidencyTicks::CLK_GATED 6643544852000                       # Cumulative time (in ticks) in various power states (Tick)
system.bridge.power_state.pwrStateResidencyTicks::SRAM_RETENTION 6643544852000                       # Cumulative time (in ticks) in various power states (Tick)
system.bridge.power_state.pwrStateResidencyTicks::OFF 6643544852000                       # Cumulative time (in ticks) in various power states (Tick)
system.clk_domain.clock                          1000                       # Clock period in ticks (Tick)
system.cpu.numCycles                      13287082620                       # Number of cpu cycles simulated (Cycle)
system.cpu.numWorkItemsStarted                      0                       # Number of work items this cpu started (Count)
system.cpu.numWorkItemsCompleted                    0                       # Number of work items this cpu completed (Count)
system.cpu.dcache.blockedCycles::no_mshrs            0                       # number of cycles access was blocked (Cycle)
system.cpu.dcache.blockedCycles::no_targets            0                       # number of cycles access was blocked (Cycle)
system.cpu.dcache.blockedCauses::no_mshrs            0                       # number of times access was blocked (Count)
system.cpu.dcache.blockedCauses::no_targets            0                       # number of times access was blocked (Count)
system.cpu.dcache.avgBlocked::no_mshrs            nan                       # average number of cycles each access was blocked ((Cycle/Count))
system.cpu.dcache.avgBlocked::no_targets          nan                       # average number of cycles each access was blocked ((Cycle/Count))
system.cpu.dcache.overallMshrUncacheable::writebacks      8387679                       # number of overall MSHR uncacheable misses (Count)
system.cpu.dcache.overallMshrUncacheable::functional      8387679                       # number of overall MSHR uncacheable misses (Count)
system.cpu.dcache.overallMshrUncacheable::interrupt      8387679                       # number of overall MSHR uncacheable misses (Count)
system.cpu.dcache.overallMshrUncacheable::cpu.mmu.dtb_walker      8387679                       # number of overall MSHR uncacheable misses (Count)
system.cpu.dcache.overallMshrUncacheable::cpu.mmu.itb_walker      8387679                       # number of overall MSHR uncacheable misses (Count)
system.cpu.dcache.overallMshrUncacheable::cpu.mmu.stage2_dtb_walker      8387679                       # number of overall MSHR uncacheable misses (Count)
system.cpu.dcache.overallMshrUncacheable::cpu.mmu.stage2_itb_walker      8387679                       # number of overall MSHR uncacheable misses (Count)
system.cpu.dcache.overallMshrUncacheable::cpu.inst      8387679                       # number of overall MSHR uncacheable misses (Count)
system.cpu.dcache.overallMshrUncacheable::cpu.data      8387679                       # number of overall MSHR uncacheable misses (Count)
system.cpu.dcache.overallMshrUncacheable::pci_ide      8387679                       # number of overall MSHR uncacheable misses (Count)
system.cpu.dcache.overallMshrUncacheable::qkv_clstr.dma      8387679                       # number of overall MSHR uncacheable misses (Count)
system.cpu.dcache.overallMshrUncacheable::qkv_clstr.qkv.system.qkv_clstr.qkv      8387679                       # number of overall MSHR uncacheable misses (Count)
system.cpu.dcache.overallMshrUncacheable::qkv_clstr.top.system.qkv_clstr.top      8387679                       # number of overall MSHR uncacheable misses (Count)
system.cpu.dcache.overallMshrUncacheable::total    109039827                       # number of overall MSHR uncacheable misses (Count)
system.cpu.dcache.overallMshrUncacheableLatency::writebacks 333986941500                       # number of overall MSHR uncacheable ticks (Tick)
system.cpu.dcache.overallMshrUncacheableLatency::functional 333986941500                       # number of overall MSHR uncacheable ticks (Tick)
system.cpu.dcache.overallMshrUncacheableLatency::interrupt 333986941500                       # number of overall MSHR uncacheable ticks (Tick)
system.cpu.dcache.overallMshrUncacheableLatency::cpu.mmu.dtb_walker 333986941500                       # number of overall MSHR uncacheable ticks (Tick)
system.cpu.dcache.overallMshrUncacheableLatency::cpu.mmu.itb_walker 333986941500                       # number of overall MSHR uncacheable ticks (Tick)
system.cpu.dcache.overallMshrUncacheableLatency::cpu.mmu.stage2_dtb_walker 333986941500                       # number of overall MSHR uncacheable ticks (Tick)
system.cpu.dcache.overallMshrUncacheableLatency::cpu.mmu.stage2_itb_walker 333986941500                       # number of overall MSHR uncacheable ticks (Tick)
system.cpu.dcache.overallMshrUncacheableLatency::cpu.inst 333986941500                       # number of overall MSHR uncacheable ticks (Tick)
system.cpu.dcache.overallMshrUncacheableLatency::cpu.data 333986941500                       # number of overall MSHR uncacheable ticks (Tick)
system.cpu.dcache.overallMshrUncacheableLatency::pci_ide 333986941500                       # number of overall MSHR uncacheable ticks (Tick)
system.cpu.dcache.overallMshrUncacheableLatency::qkv_clstr.dma 333986941500                       # number of overall MSHR uncacheable ticks (Tick)
system.cpu.dcache.overallMshrUncacheableLatency::qkv_clstr.qkv.system.qkv_clstr.qkv 333986941500                       # number of overall MSHR uncacheable ticks (Tick)
system.cpu.dcache.overallMshrUncacheableLatency::qkv_clstr.top.system.qkv_clstr.top 333986941500                       # number of overall MSHR uncacheable ticks (Tick)
system.cpu.dcache.overallMshrUncacheableLatency::total 4341830239500                       # number of overall MSHR uncacheable ticks (Tick)
system.cpu.dcache.overallAvgMshrUncacheableLatency::writebacks 39818.755761                       # average overall mshr uncacheable latency ((Cycle/Count))
system.cpu.dcache.overallAvgMshrUncacheableLatency::functional 39818.755761                       # average overall mshr uncacheable latency ((Cycle/Count))
system.cpu.dcache.overallAvgMshrUncacheableLatency::interrupt 39818.755761                       # average overall mshr uncacheable latency ((Cycle/Count))
system.cpu.dcache.overallAvgMshrUncacheableLatency::cpu.mmu.dtb_walker 39818.755761                       # average overall mshr uncacheable latency ((Cycle/Count))
system.cpu.dcache.overallAvgMshrUncacheableLatency::cpu.mmu.itb_walker 39818.755761                       # average overall mshr uncacheable latency ((Cycle/Count))
system.cpu.dcache.overallAvgMshrUncacheableLatency::cpu.mmu.stage2_dtb_walker 39818.755761                       # average overall mshr uncacheable latency ((Cycle/Count))
system.cpu.dcache.overallAvgMshrUncacheableLatency::cpu.mmu.stage2_itb_walker 39818.755761                       # average overall mshr uncacheable latency ((Cycle/Count))
system.cpu.dcache.overallAvgMshrUncacheableLatency::cpu.inst 39818.755761                       # average overall mshr uncacheable latency ((Cycle/Count))
system.cpu.dcache.overallAvgMshrUncacheableLatency::cpu.data 39818.755761                       # average overall mshr uncacheable latency ((Cycle/Count))
system.cpu.dcache.overallAvgMshrUncacheableLatency::pci_ide 39818.755761                       # average overall mshr uncacheable latency ((Cycle/Count))
system.cpu.dcache.overallAvgMshrUncacheableLatency::qkv_clstr.dma 39818.755761                       # average overall mshr uncacheable latency ((Cycle/Count))
system.cpu.dcache.overallAvgMshrUncacheableLatency::qkv_clstr.qkv.system.qkv_clstr.qkv 39818.755761                       # average overall mshr uncacheable latency ((Cycle/Count))
system.cpu.dcache.overallAvgMshrUncacheableLatency::qkv_clstr.top.system.qkv_clstr.top 39818.755761                       # average overall mshr uncacheable latency ((Cycle/Count))
system.cpu.dcache.overallAvgMshrUncacheableLatency::total 39818.755761                       # average overall mshr uncacheable latency ((Cycle/Count))
system.cpu.dcache.replacements                      0                       # number of replacements (Count)
system.cpu.dcache.ReadReq.mshrUncacheable::writebacks      3773251                       # number of ReadReq MSHR uncacheable (Count)
system.cpu.dcache.ReadReq.mshrUncacheable::functional      3773251                       # number of ReadReq MSHR uncacheable (Count)
system.cpu.dcache.ReadReq.mshrUncacheable::interrupt      3773251                       # number of ReadReq MSHR uncacheable (Count)
system.cpu.dcache.ReadReq.mshrUncacheable::cpu.mmu.dtb_walker      3773251                       # number of ReadReq MSHR uncacheable (Count)
system.cpu.dcache.ReadReq.mshrUncacheable::cpu.mmu.itb_walker      3773251                       # number of ReadReq MSHR uncacheable (Count)
system.cpu.dcache.ReadReq.mshrUncacheable::cpu.mmu.stage2_dtb_walker      3773251                       # number of ReadReq MSHR uncacheable (Count)
system.cpu.dcache.ReadReq.mshrUncacheable::cpu.mmu.stage2_itb_walker      3773251                       # number of ReadReq MSHR uncacheable (Count)
system.cpu.dcache.ReadReq.mshrUncacheable::cpu.inst      3773251                       # number of ReadReq MSHR uncacheable (Count)
system.cpu.dcache.ReadReq.mshrUncacheable::cpu.data      3773251                       # number of ReadReq MSHR uncacheable (Count)
system.cpu.dcache.ReadReq.mshrUncacheable::pci_ide      3773251                       # number of ReadReq MSHR uncacheable (Count)
system.cpu.dcache.ReadReq.mshrUncacheable::qkv_clstr.dma      3773251                       # number of ReadReq MSHR uncacheable (Count)
system.cpu.dcache.ReadReq.mshrUncacheable::qkv_clstr.qkv.system.qkv_clstr.qkv      3773251                       # number of ReadReq MSHR uncacheable (Count)
system.cpu.dcache.ReadReq.mshrUncacheable::qkv_clstr.top.system.qkv_clstr.top      3773251                       # number of ReadReq MSHR uncacheable (Count)
system.cpu.dcache.ReadReq.mshrUncacheable::total     49052263                       # number of ReadReq MSHR uncacheable (Count)
system.cpu.dcache.ReadReq.mshrUncacheableLatency::writebacks 333986941500                       # number of ReadReq MSHR uncacheable ticks (Tick)
system.cpu.dcache.ReadReq.mshrUncacheableLatency::functional 333986941500                       # number of ReadReq MSHR uncacheable ticks (Tick)
system.cpu.dcache.ReadReq.mshrUncacheableLatency::interrupt 333986941500                       # number of ReadReq MSHR uncacheable ticks (Tick)
system.cpu.dcache.ReadReq.mshrUncacheableLatency::cpu.mmu.dtb_walker 333986941500                       # number of ReadReq MSHR uncacheable ticks (Tick)
system.cpu.dcache.ReadReq.mshrUncacheableLatency::cpu.mmu.itb_walker 333986941500                       # number of ReadReq MSHR uncacheable ticks (Tick)
system.cpu.dcache.ReadReq.mshrUncacheableLatency::cpu.mmu.stage2_dtb_walker 333986941500                       # number of ReadReq MSHR uncacheable ticks (Tick)
system.cpu.dcache.ReadReq.mshrUncacheableLatency::cpu.mmu.stage2_itb_walker 333986941500                       # number of ReadReq MSHR uncacheable ticks (Tick)
system.cpu.dcache.ReadReq.mshrUncacheableLatency::cpu.inst 333986941500                       # number of ReadReq MSHR uncacheable ticks (Tick)
system.cpu.dcache.ReadReq.mshrUncacheableLatency::cpu.data 333986941500                       # number of ReadReq MSHR uncacheable ticks (Tick)
system.cpu.dcache.ReadReq.mshrUncacheableLatency::pci_ide 333986941500                       # number of ReadReq MSHR uncacheable ticks (Tick)
system.cpu.dcache.ReadReq.mshrUncacheableLatency::qkv_clstr.dma 333986941500                       # number of ReadReq MSHR uncacheable ticks (Tick)
system.cpu.dcache.ReadReq.mshrUncacheableLatency::qkv_clstr.qkv.system.qkv_clstr.qkv 333986941500                       # number of ReadReq MSHR uncacheable ticks (Tick)
system.cpu.dcache.ReadReq.mshrUncacheableLatency::qkv_clstr.top.system.qkv_clstr.top 333986941500                       # number of ReadReq MSHR uncacheable ticks (Tick)
system.cpu.dcache.ReadReq.mshrUncacheableLatency::total 4341830239500                       # number of ReadReq MSHR uncacheable ticks (Tick)
system.cpu.dcache.ReadReq.avgMshrUncacheableLatency::writebacks 88514.371692                       # average ReadReq mshr uncacheable latency ((Tick/Count))
system.cpu.dcache.ReadReq.avgMshrUncacheableLatency::functional 88514.371692                       # average ReadReq mshr uncacheable latency ((Tick/Count))
system.cpu.dcache.ReadReq.avgMshrUncacheableLatency::interrupt 88514.371692                       # average ReadReq mshr uncacheable latency ((Tick/Count))
system.cpu.dcache.ReadReq.avgMshrUncacheableLatency::cpu.mmu.dtb_walker 88514.371692                       # average ReadReq mshr uncacheable latency ((Tick/Count))
system.cpu.dcache.ReadReq.avgMshrUncacheableLatency::cpu.mmu.itb_walker 88514.371692                       # average ReadReq mshr uncacheable latency ((Tick/Count))
system.cpu.dcache.ReadReq.avgMshrUncacheableLatency::cpu.mmu.stage2_dtb_walker 88514.371692                       # average ReadReq mshr uncacheable latency ((Tick/Count))
system.cpu.dcache.ReadReq.avgMshrUncacheableLatency::cpu.mmu.stage2_itb_walker 88514.371692                       # average ReadReq mshr uncacheable latency ((Tick/Count))
system.cpu.dcache.ReadReq.avgMshrUncacheableLatency::cpu.inst 88514.371692                       # average ReadReq mshr uncacheable latency ((Tick/Count))
system.cpu.dcache.ReadReq.avgMshrUncacheableLatency::cpu.data 88514.371692                       # average ReadReq mshr uncacheable latency ((Tick/Count))
system.cpu.dcache.ReadReq.avgMshrUncacheableLatency::pci_ide 88514.371692                       # average ReadReq mshr uncacheable latency ((Tick/Count))
system.cpu.dcache.ReadReq.avgMshrUncacheableLatency::qkv_clstr.dma 88514.371692                       # average ReadReq mshr uncacheable latency ((Tick/Count))
system.cpu.dcache.ReadReq.avgMshrUncacheableLatency::qkv_clstr.qkv.system.qkv_clstr.qkv 88514.371692                       # average ReadReq mshr uncacheable latency ((Tick/Count))
system.cpu.dcache.ReadReq.avgMshrUncacheableLatency::qkv_clstr.top.system.qkv_clstr.top 88514.371692                       # average ReadReq mshr uncacheable latency ((Tick/Count))
system.cpu.dcache.ReadReq.avgMshrUncacheableLatency::total 88514.371692                       # average ReadReq mshr uncacheable latency ((Tick/Count))
system.cpu.dcache.WriteReq.mshrUncacheable::writebacks      4614428                       # number of WriteReq MSHR uncacheable (Count)
system.cpu.dcache.WriteReq.mshrUncacheable::functional      4614428                       # number of WriteReq MSHR uncacheable (Count)
system.cpu.dcache.WriteReq.mshrUncacheable::interrupt      4614428                       # number of WriteReq MSHR uncacheable (Count)
system.cpu.dcache.WriteReq.mshrUncacheable::cpu.mmu.dtb_walker      4614428                       # number of WriteReq MSHR uncacheable (Count)
system.cpu.dcache.WriteReq.mshrUncacheable::cpu.mmu.itb_walker      4614428                       # number of WriteReq MSHR uncacheable (Count)
system.cpu.dcache.WriteReq.mshrUncacheable::cpu.mmu.stage2_dtb_walker      4614428                       # number of WriteReq MSHR uncacheable (Count)
system.cpu.dcache.WriteReq.mshrUncacheable::cpu.mmu.stage2_itb_walker      4614428                       # number of WriteReq MSHR uncacheable (Count)
system.cpu.dcache.WriteReq.mshrUncacheable::cpu.inst      4614428                       # number of WriteReq MSHR uncacheable (Count)
system.cpu.dcache.WriteReq.mshrUncacheable::cpu.data      4614428                       # number of WriteReq MSHR uncacheable (Count)
system.cpu.dcache.WriteReq.mshrUncacheable::pci_ide      4614428                       # number of WriteReq MSHR uncacheable (Count)
system.cpu.dcache.WriteReq.mshrUncacheable::qkv_clstr.dma      4614428                       # number of WriteReq MSHR uncacheable (Count)
system.cpu.dcache.WriteReq.mshrUncacheable::qkv_clstr.qkv.system.qkv_clstr.qkv      4614428                       # number of WriteReq MSHR uncacheable (Count)
system.cpu.dcache.WriteReq.mshrUncacheable::qkv_clstr.top.system.qkv_clstr.top      4614428                       # number of WriteReq MSHR uncacheable (Count)
system.cpu.dcache.WriteReq.mshrUncacheable::total     59987564                       # number of WriteReq MSHR uncacheable (Count)
system.cpu.dcache.power_state.pwrStateResidencyTicks::UNDEFINED 6643544852000                       # Cumulative time (in ticks) in various power states (Tick)
system.cpu.dcache.power_state.pwrStateResidencyTicks::ON 6643544852000                       # Cumulative time (in ticks) in various power states (Tick)
system.cpu.dcache.power_state.pwrStateResidencyTicks::CLK_GATED 6643544852000                       # Cumulative time (in ticks) in various power states (Tick)
system.cpu.dcache.power_state.pwrStateResidencyTicks::SRAM_RETENTION 6643544852000                       # Cumulative time (in ticks) in various power states (Tick)
system.cpu.dcache.power_state.pwrStateResidencyTicks::OFF 6643544852000                       # Cumulative time (in ticks) in various power states (Tick)
system.cpu.dcache.tags.tagsInUse                    0                       # Average ticks per tags in use ((Tick/Count))
system.cpu.dcache.tags.totalRefs                    0                       # Total number of references to valid blocks. (Count)
system.cpu.dcache.tags.sampledRefs                  0                       # Sample count of references to valid blocks. (Count)
system.cpu.dcache.tags.avgRefs                    nan                       # Average number of references to valid blocks. ((Count/Count))
system.cpu.dcache.tags.warmupTick                   0                       # The tick when the warmup percentage was hit. (Tick)
system.cpu.dcache.tags.tagAccesses                  0                       # Number of tag accesses (Count)
system.cpu.dcache.tags.dataAccesses                 0                       # Number of data accesses (Count)
system.cpu.dcache.tags.power_state.pwrStateResidencyTicks::UNDEFINED 6643544852000                       # Cumulative time (in ticks) in various power states (Tick)
system.cpu.dcache.tags.power_state.pwrStateResidencyTicks::ON 6643544852000                       # Cumulative time (in ticks) in various power states (Tick)
system.cpu.dcache.tags.power_state.pwrStateResidencyTicks::CLK_GATED 6643544852000                       # Cumulative time (in ticks) in various power states (Tick)
system.cpu.dcache.tags.power_state.pwrStateResidencyTicks::SRAM_RETENTION 6643544852000                       # Cumulative time (in ticks) in various power states (Tick)
system.cpu.dcache.tags.power_state.pwrStateResidencyTicks::OFF 6643544852000                       # Cumulative time (in ticks) in various power states (Tick)
system.cpu.exec_context.thread_0.numInsts     93737116                       # Number of instructions committed (Count)
system.cpu.exec_context.thread_0.numOps     101676828                       # Number of ops (including micro ops) committed (Count)
system.cpu.exec_context.thread_0.numIntAluAccesses     92822617                       # Number of integer alu accesses (Count)
system.cpu.exec_context.thread_0.numFpAluAccesses            0                       # Number of float alu accesses (Count)
system.cpu.exec_context.thread_0.numVecAluAccesses            0                       # Number of vector alu accesses (Count)
system.cpu.exec_context.thread_0.numCallsReturns      3986672                       # Number of times a function call or return occured (Count)
system.cpu.exec_context.thread_0.numCondCtrlInsts     10750139                       # Number of instructions that are conditional controls (Count)
system.cpu.exec_context.thread_0.numIntInsts     92822617                       # Number of integer instructions (Count)
system.cpu.exec_context.thread_0.numFpInsts            0                       # Number of float instructions (Count)
system.cpu.exec_context.thread_0.numVecInsts            0                       # Number of vector instructions (Count)
system.cpu.exec_context.thread_0.numIntRegReads    139185196                       # Number of times the integer registers were read (Count)
system.cpu.exec_context.thread_0.numIntRegWrites     73029768                       # Number of times the integer registers were written (Count)
system.cpu.exec_context.thread_0.numFpRegReads            0                       # Number of times the floating registers were read (Count)
system.cpu.exec_context.thread_0.numFpRegWrites            0                       # Number of times the floating registers were written (Count)
system.cpu.exec_context.thread_0.numVecRegReads            0                       # Number of times the vector registers were read (Count)
system.cpu.exec_context.thread_0.numVecRegWrites            0                       # Number of times the vector registers were written (Count)
system.cpu.exec_context.thread_0.numVecPredRegReads            0                       # Number of times the predicate registers were read (Count)
system.cpu.exec_context.thread_0.numVecPredRegWrites            0                       # Number of times the predicate registers were written (Count)
system.cpu.exec_context.thread_0.numCCRegReads    319958937                       # Number of times the CC registers were read (Count)
system.cpu.exec_context.thread_0.numCCRegWrites     75119434                       # Number of times the CC registers were written (Count)
system.cpu.exec_context.thread_0.numMemRefs      9590579                       # Number of memory refs (Count)
system.cpu.exec_context.thread_0.numLoadInsts      4976151                       # Number of load instructions (Count)
system.cpu.exec_context.thread_0.numStoreInsts      4614428                       # Number of store instructions (Count)
system.cpu.exec_context.thread_0.numIdleCycles            0                       # Number of idle cycles (Cycle)
system.cpu.exec_context.thread_0.numBusyCycles  13287082620                       # Number of busy cycles (Cycle)
system.cpu.exec_context.thread_0.notIdleFraction            1                       # Percentage of non-idle cycles (Ratio)
system.cpu.exec_context.thread_0.idleFraction            0                       # Percentage of idle cycles (Ratio)
system.cpu.exec_context.thread_0.numBranches     14043783                       # Number of branches fetched (Count)
system.cpu.exec_context.thread_0.statExecutedInstType::No_OpClass    102879728      1.89%      1.89% # Class of executed instruction. (Count)
system.cpu.exec_context.thread_0.statExecutedInstType::IntAlu    102879728      1.89%      3.77% # Class of executed instruction. (Count)
system.cpu.exec_context.thread_0.statExecutedInstType::IntMult    102879728      1.89%      5.66% # Class of executed instruction. (Count)
system.cpu.exec_context.thread_0.statExecutedInstType::IntDiv    102879728      1.89%      7.55% # Class of executed instruction. (Count)
system.cpu.exec_context.thread_0.statExecutedInstType::FloatAdd    102879728      1.89%      9.43% # Class of executed instruction. (Count)
system.cpu.exec_context.thread_0.statExecutedInstType::FloatCmp    102879728      1.89%     11.32% # Class of executed instruction. (Count)
system.cpu.exec_context.thread_0.statExecutedInstType::FloatCvt    102879728      1.89%     13.21% # Class of executed instruction. (Count)
system.cpu.exec_context.thread_0.statExecutedInstType::FloatMult    102879728      1.89%     15.09% # Class of executed instruction. (Count)
system.cpu.exec_context.thread_0.statExecutedInstType::FloatMultAcc    102879728      1.89%     16.98% # Class of executed instruction. (Count)
system.cpu.exec_context.thread_0.statExecutedInstType::FloatDiv    102879728      1.89%     18.87% # Class of executed instruction. (Count)
system.cpu.exec_context.thread_0.statExecutedInstType::FloatMisc    102879728      1.89%     20.75% # Class of executed instruction. (Count)
system.cpu.exec_context.thread_0.statExecutedInstType::FloatSqrt    102879728      1.89%     22.64% # Class of executed instruction. (Count)
system.cpu.exec_context.thread_0.statExecutedInstType::SimdAdd    102879728      1.89%     24.53% # Class of executed instruction. (Count)
system.cpu.exec_context.thread_0.statExecutedInstType::SimdAddAcc    102879728      1.89%     26.42% # Class of executed instruction. (Count)
system.cpu.exec_context.thread_0.statExecutedInstType::SimdAlu    102879728      1.89%     28.30% # Class of executed instruction. (Count)
system.cpu.exec_context.thread_0.statExecutedInstType::SimdCmp    102879728      1.89%     30.19% # Class of executed instruction. (Count)
system.cpu.exec_context.thread_0.statExecutedInstType::SimdCvt    102879728      1.89%     32.08% # Class of executed instruction. (Count)
system.cpu.exec_context.thread_0.statExecutedInstType::SimdMisc    102879728      1.89%     33.96% # Class of executed instruction. (Count)
system.cpu.exec_context.thread_0.statExecutedInstType::SimdMult    102879728      1.89%     35.85% # Class of executed instruction. (Count)
system.cpu.exec_context.thread_0.statExecutedInstType::SimdMultAcc    102879728      1.89%     37.74% # Class of executed instruction. (Count)
system.cpu.exec_context.thread_0.statExecutedInstType::SimdShift    102879728      1.89%     39.62% # Class of executed instruction. (Count)
system.cpu.exec_context.thread_0.statExecutedInstType::SimdShiftAcc    102879728      1.89%     41.51% # Class of executed instruction. (Count)
system.cpu.exec_context.thread_0.statExecutedInstType::SimdDiv    102879728      1.89%     43.40% # Class of executed instruction. (Count)
system.cpu.exec_context.thread_0.statExecutedInstType::SimdSqrt    102879728      1.89%     45.28% # Class of executed instruction. (Count)
system.cpu.exec_context.thread_0.statExecutedInstType::SimdFloatAdd    102879728      1.89%     47.17% # Class of executed instruction. (Count)
system.cpu.exec_context.thread_0.statExecutedInstType::SimdFloatAlu    102879728      1.89%     49.06% # Class of executed instruction. (Count)
system.cpu.exec_context.thread_0.statExecutedInstType::SimdFloatCmp    102879728      1.89%     50.94% # Class of executed instruction. (Count)
system.cpu.exec_context.thread_0.statExecutedInstType::SimdFloatCvt    102879728      1.89%     52.83% # Class of executed instruction. (Count)
system.cpu.exec_context.thread_0.statExecutedInstType::SimdFloatDiv    102879728      1.89%     54.72% # Class of executed instruction. (Count)
system.cpu.exec_context.thread_0.statExecutedInstType::SimdFloatMisc    102879728      1.89%     56.60% # Class of executed instruction. (Count)
system.cpu.exec_context.thread_0.statExecutedInstType::SimdFloatMult    102879728      1.89%     58.49% # Class of executed instruction. (Count)
system.cpu.exec_context.thread_0.statExecutedInstType::SimdFloatMultAcc    102879728      1.89%     60.38% # Class of executed instruction. (Count)
system.cpu.exec_context.thread_0.statExecutedInstType::SimdFloatSqrt    102879728      1.89%     62.26% # Class of executed instruction. (Count)
system.cpu.exec_context.thread_0.statExecutedInstType::SimdReduceAdd    102879728      1.89%     64.15% # Class of executed instruction. (Count)
system.cpu.exec_context.thread_0.statExecutedInstType::SimdReduceAlu    102879728      1.89%     66.04% # Class of executed instruction. (Count)
system.cpu.exec_context.thread_0.statExecutedInstType::SimdReduceCmp    102879728      1.89%     67.92% # Class of executed instruction. (Count)
system.cpu.exec_context.thread_0.statExecutedInstType::SimdFloatReduceAdd    102879728      1.89%     69.81% # Class of executed instruction. (Count)
system.cpu.exec_context.thread_0.statExecutedInstType::SimdFloatReduceCmp    102879728      1.89%     71.70% # Class of executed instruction. (Count)
system.cpu.exec_context.thread_0.statExecutedInstType::SimdAes    102879728      1.89%     73.58% # Class of executed instruction. (Count)
system.cpu.exec_context.thread_0.statExecutedInstType::SimdAesMix    102879728      1.89%     75.47% # Class of executed instruction. (Count)
system.cpu.exec_context.thread_0.statExecutedInstType::SimdSha1Hash    102879728      1.89%     77.36% # Class of executed instruction. (Count)
system.cpu.exec_context.thread_0.statExecutedInstType::SimdSha1Hash2    102879728      1.89%     79.25% # Class of executed instruction. (Count)
system.cpu.exec_context.thread_0.statExecutedInstType::SimdSha256Hash    102879728      1.89%     81.13% # Class of executed instruction. (Count)
system.cpu.exec_context.thread_0.statExecutedInstType::SimdSha256Hash2    102879728      1.89%     83.02% # Class of executed instruction. (Count)
system.cpu.exec_context.thread_0.statExecutedInstType::SimdShaSigma2    102879728      1.89%     84.91% # Class of executed instruction. (Count)
system.cpu.exec_context.thread_0.statExecutedInstType::SimdShaSigma3    102879728      1.89%     86.79% # Class of executed instruction. (Count)
system.cpu.exec_context.thread_0.statExecutedInstType::SimdPredAlu    102879728      1.89%     88.68% # Class of executed instruction. (Count)
system.cpu.exec_context.thread_0.statExecutedInstType::MemRead    102879728      1.89%     90.57% # Class of executed instruction. (Count)
system.cpu.exec_context.thread_0.statExecutedInstType::MemWrite    102879728      1.89%     92.45% # Class of executed instruction. (Count)
system.cpu.exec_context.thread_0.statExecutedInstType::FloatMemRead    102879728      1.89%     94.34% # Class of executed instruction. (Count)
system.cpu.exec_context.thread_0.statExecutedInstType::FloatMemWrite    102879728      1.89%     96.23% # Class of executed instruction. (Count)
system.cpu.exec_context.thread_0.statExecutedInstType::IprAccess    102879728      1.89%     98.11% # Class of executed instruction. (Count)
system.cpu.exec_context.thread_0.statExecutedInstType::InstPrefetch    102879728      1.89%    100.00% # Class of executed instruction. (Count)
system.cpu.exec_context.thread_0.statExecutedInstType::total   5452625584                       # Class of executed instruction. (Count)
system.cpu.icache.blockedCycles::no_mshrs            0                       # number of cycles access was blocked (Cycle)
system.cpu.icache.blockedCycles::no_targets            0                       # number of cycles access was blocked (Cycle)
system.cpu.icache.blockedCauses::no_mshrs            0                       # number of times access was blocked (Count)
system.cpu.icache.blockedCauses::no_targets            0                       # number of times access was blocked (Count)
system.cpu.icache.avgBlocked::no_mshrs            nan                       # average number of cycles each access was blocked ((Cycle/Count))
system.cpu.icache.avgBlocked::no_targets          nan                       # average number of cycles each access was blocked ((Cycle/Count))
system.cpu.icache.overallMshrUncacheable::writebacks     93737116                       # number of overall MSHR uncacheable misses (Count)
system.cpu.icache.overallMshrUncacheable::functional     93737116                       # number of overall MSHR uncacheable misses (Count)
system.cpu.icache.overallMshrUncacheable::interrupt     93737116                       # number of overall MSHR uncacheable misses (Count)
system.cpu.icache.overallMshrUncacheable::cpu.mmu.dtb_walker     93737116                       # number of overall MSHR uncacheable misses (Count)
system.cpu.icache.overallMshrUncacheable::cpu.mmu.itb_walker     93737116                       # number of overall MSHR uncacheable misses (Count)
system.cpu.icache.overallMshrUncacheable::cpu.mmu.stage2_dtb_walker     93737116                       # number of overall MSHR uncacheable misses (Count)
system.cpu.icache.overallMshrUncacheable::cpu.mmu.stage2_itb_walker     93737116                       # number of overall MSHR uncacheable misses (Count)
system.cpu.icache.overallMshrUncacheable::cpu.inst     93737116                       # number of overall MSHR uncacheable misses (Count)
system.cpu.icache.overallMshrUncacheable::cpu.data     93737116                       # number of overall MSHR uncacheable misses (Count)
system.cpu.icache.overallMshrUncacheable::pci_ide     93737116                       # number of overall MSHR uncacheable misses (Count)
system.cpu.icache.overallMshrUncacheable::qkv_clstr.dma     93737116                       # number of overall MSHR uncacheable misses (Count)
system.cpu.icache.overallMshrUncacheable::qkv_clstr.qkv.system.qkv_clstr.qkv     93737116                       # number of overall MSHR uncacheable misses (Count)
system.cpu.icache.overallMshrUncacheable::qkv_clstr.top.system.qkv_clstr.top     93737116                       # number of overall MSHR uncacheable misses (Count)
system.cpu.icache.overallMshrUncacheable::total   1218582508                       # number of overall MSHR uncacheable misses (Count)
system.cpu.icache.overallMshrUncacheableLatency::writebacks 5951617925000                       # number of overall MSHR uncacheable ticks (Tick)
system.cpu.icache.overallMshrUncacheableLatency::functional 5951617925000                       # number of overall MSHR uncacheable ticks (Tick)
system.cpu.icache.overallMshrUncacheableLatency::interrupt 5951617925000                       # number of overall MSHR uncacheable ticks (Tick)
system.cpu.icache.overallMshrUncacheableLatency::cpu.mmu.dtb_walker 5951617925000                       # number of overall MSHR uncacheable ticks (Tick)
system.cpu.icache.overallMshrUncacheableLatency::cpu.mmu.itb_walker 5951617925000                       # number of overall MSHR uncacheable ticks (Tick)
system.cpu.icache.overallMshrUncacheableLatency::cpu.mmu.stage2_dtb_walker 5951617925000                       # number of overall MSHR uncacheable ticks (Tick)
system.cpu.icache.overallMshrUncacheableLatency::cpu.mmu.stage2_itb_walker 5951617925000                       # number of overall MSHR uncacheable ticks (Tick)
system.cpu.icache.overallMshrUncacheableLatency::cpu.inst 5951617925000                       # number of overall MSHR uncacheable ticks (Tick)
system.cpu.icache.overallMshrUncacheableLatency::cpu.data 5951617925000                       # number of overall MSHR uncacheable ticks (Tick)
system.cpu.icache.overallMshrUncacheableLatency::pci_ide 5951617925000                       # number of overall MSHR uncacheable ticks (Tick)
system.cpu.icache.overallMshrUncacheableLatency::qkv_clstr.dma 5951617925000                       # number of overall MSHR uncacheable ticks (Tick)
system.cpu.icache.overallMshrUncacheableLatency::qkv_clstr.qkv.system.qkv_clstr.qkv 5951617925000                       # number of overall MSHR uncacheable ticks (Tick)
system.cpu.icache.overallMshrUncacheableLatency::qkv_clstr.top.system.qkv_clstr.top 5951617925000                       # number of overall MSHR uncacheable ticks (Tick)
system.cpu.icache.overallMshrUncacheableLatency::total 77371033025000                       # number of overall MSHR uncacheable ticks (Tick)
system.cpu.icache.overallAvgMshrUncacheableLatency::writebacks 63492.650286                       # average overall mshr uncacheable latency ((Cycle/Count))
system.cpu.icache.overallAvgMshrUncacheableLatency::functional 63492.650286                       # average overall mshr uncacheable latency ((Cycle/Count))
system.cpu.icache.overallAvgMshrUncacheableLatency::interrupt 63492.650286                       # average overall mshr uncacheable latency ((Cycle/Count))
system.cpu.icache.overallAvgMshrUncacheableLatency::cpu.mmu.dtb_walker 63492.650286                       # average overall mshr uncacheable latency ((Cycle/Count))
system.cpu.icache.overallAvgMshrUncacheableLatency::cpu.mmu.itb_walker 63492.650286                       # average overall mshr uncacheable latency ((Cycle/Count))
system.cpu.icache.overallAvgMshrUncacheableLatency::cpu.mmu.stage2_dtb_walker 63492.650286                       # average overall mshr uncacheable latency ((Cycle/Count))
system.cpu.icache.overallAvgMshrUncacheableLatency::cpu.mmu.stage2_itb_walker 63492.650286                       # average overall mshr uncacheable latency ((Cycle/Count))
system.cpu.icache.overallAvgMshrUncacheableLatency::cpu.inst 63492.650286                       # average overall mshr uncacheable latency ((Cycle/Count))
system.cpu.icache.overallAvgMshrUncacheableLatency::cpu.data 63492.650286                       # average overall mshr uncacheable latency ((Cycle/Count))
system.cpu.icache.overallAvgMshrUncacheableLatency::pci_ide 63492.650286                       # average overall mshr uncacheable latency ((Cycle/Count))
system.cpu.icache.overallAvgMshrUncacheableLatency::qkv_clstr.dma 63492.650286                       # average overall mshr uncacheable latency ((Cycle/Count))
system.cpu.icache.overallAvgMshrUncacheableLatency::qkv_clstr.qkv.system.qkv_clstr.qkv 63492.650286                       # average overall mshr uncacheable latency ((Cycle/Count))
system.cpu.icache.overallAvgMshrUncacheableLatency::qkv_clstr.top.system.qkv_clstr.top 63492.650286                       # average overall mshr uncacheable latency ((Cycle/Count))
system.cpu.icache.overallAvgMshrUncacheableLatency::total 63492.650286                       # average overall mshr uncacheable latency ((Cycle/Count))
system.cpu.icache.replacements                      0                       # number of replacements (Count)
system.cpu.icache.ReadReq.mshrUncacheable::writebacks     93737116                       # number of ReadReq MSHR uncacheable (Count)
system.cpu.icache.ReadReq.mshrUncacheable::functional     93737116                       # number of ReadReq MSHR uncacheable (Count)
system.cpu.icache.ReadReq.mshrUncacheable::interrupt     93737116                       # number of ReadReq MSHR uncacheable (Count)
system.cpu.icache.ReadReq.mshrUncacheable::cpu.mmu.dtb_walker     93737116                       # number of ReadReq MSHR uncacheable (Count)
system.cpu.icache.ReadReq.mshrUncacheable::cpu.mmu.itb_walker     93737116                       # number of ReadReq MSHR uncacheable (Count)
system.cpu.icache.ReadReq.mshrUncacheable::cpu.mmu.stage2_dtb_walker     93737116                       # number of ReadReq MSHR uncacheable (Count)
system.cpu.icache.ReadReq.mshrUncacheable::cpu.mmu.stage2_itb_walker     93737116                       # number of ReadReq MSHR uncacheable (Count)
system.cpu.icache.ReadReq.mshrUncacheable::cpu.inst     93737116                       # number of ReadReq MSHR uncacheable (Count)
system.cpu.icache.ReadReq.mshrUncacheable::cpu.data     93737116                       # number of ReadReq MSHR uncacheable (Count)
system.cpu.icache.ReadReq.mshrUncacheable::pci_ide     93737116                       # number of ReadReq MSHR uncacheable (Count)
system.cpu.icache.ReadReq.mshrUncacheable::qkv_clstr.dma     93737116                       # number of ReadReq MSHR uncacheable (Count)
system.cpu.icache.ReadReq.mshrUncacheable::qkv_clstr.qkv.system.qkv_clstr.qkv     93737116                       # number of ReadReq MSHR uncacheable (Count)
system.cpu.icache.ReadReq.mshrUncacheable::qkv_clstr.top.system.qkv_clstr.top     93737116                       # number of ReadReq MSHR uncacheable (Count)
system.cpu.icache.ReadReq.mshrUncacheable::total   1218582508                       # number of ReadReq MSHR uncacheable (Count)
system.cpu.icache.ReadReq.mshrUncacheableLatency::writebacks 5951617925000                       # number of ReadReq MSHR uncacheable ticks (Tick)
system.cpu.icache.ReadReq.mshrUncacheableLatency::functional 5951617925000                       # number of ReadReq MSHR uncacheable ticks (Tick)
system.cpu.icache.ReadReq.mshrUncacheableLatency::interrupt 5951617925000                       # number of ReadReq MSHR uncacheable ticks (Tick)
system.cpu.icache.ReadReq.mshrUncacheableLatency::cpu.mmu.dtb_walker 5951617925000                       # number of ReadReq MSHR uncacheable ticks (Tick)
system.cpu.icache.ReadReq.mshrUncacheableLatency::cpu.mmu.itb_walker 5951617925000                       # number of ReadReq MSHR uncacheable ticks (Tick)
system.cpu.icache.ReadReq.mshrUncacheableLatency::cpu.mmu.stage2_dtb_walker 5951617925000                       # number of ReadReq MSHR uncacheable ticks (Tick)
system.cpu.icache.ReadReq.mshrUncacheableLatency::cpu.mmu.stage2_itb_walker 5951617925000                       # number of ReadReq MSHR uncacheable ticks (Tick)
system.cpu.icache.ReadReq.mshrUncacheableLatency::cpu.inst 5951617925000                       # number of ReadReq MSHR uncacheable ticks (Tick)
system.cpu.icache.ReadReq.mshrUncacheableLatency::cpu.data 5951617925000                       # number of ReadReq MSHR uncacheable ticks (Tick)
system.cpu.icache.ReadReq.mshrUncacheableLatency::pci_ide 5951617925000                       # number of ReadReq MSHR uncacheable ticks (Tick)
system.cpu.icache.ReadReq.mshrUncacheableLatency::qkv_clstr.dma 5951617925000                       # number of ReadReq MSHR uncacheable ticks (Tick)
system.cpu.icache.ReadReq.mshrUncacheableLatency::qkv_clstr.qkv.system.qkv_clstr.qkv 5951617925000                       # number of ReadReq MSHR uncacheable ticks (Tick)
system.cpu.icache.ReadReq.mshrUncacheableLatency::qkv_clstr.top.system.qkv_clstr.top 5951617925000                       # number of ReadReq MSHR uncacheable ticks (Tick)
system.cpu.icache.ReadReq.mshrUncacheableLatency::total 77371033025000                       # number of ReadReq MSHR uncacheable ticks (Tick)
system.cpu.icache.ReadReq.avgMshrUncacheableLatency::writebacks 63492.650286                       # average ReadReq mshr uncacheable latency ((Tick/Count))
system.cpu.icache.ReadReq.avgMshrUncacheableLatency::functional 63492.650286                       # average ReadReq mshr uncacheable latency ((Tick/Count))
system.cpu.icache.ReadReq.avgMshrUncacheableLatency::interrupt 63492.650286                       # average ReadReq mshr uncacheable latency ((Tick/Count))
system.cpu.icache.ReadReq.avgMshrUncacheableLatency::cpu.mmu.dtb_walker 63492.650286                       # average ReadReq mshr uncacheable latency ((Tick/Count))
system.cpu.icache.ReadReq.avgMshrUncacheableLatency::cpu.mmu.itb_walker 63492.650286                       # average ReadReq mshr uncacheable latency ((Tick/Count))
system.cpu.icache.ReadReq.avgMshrUncacheableLatency::cpu.mmu.stage2_dtb_walker 63492.650286                       # average ReadReq mshr uncacheable latency ((Tick/Count))
system.cpu.icache.ReadReq.avgMshrUncacheableLatency::cpu.mmu.stage2_itb_walker 63492.650286                       # average ReadReq mshr uncacheable latency ((Tick/Count))
system.cpu.icache.ReadReq.avgMshrUncacheableLatency::cpu.inst 63492.650286                       # average ReadReq mshr uncacheable latency ((Tick/Count))
system.cpu.icache.ReadReq.avgMshrUncacheableLatency::cpu.data 63492.650286                       # average ReadReq mshr uncacheable latency ((Tick/Count))
system.cpu.icache.ReadReq.avgMshrUncacheableLatency::pci_ide 63492.650286                       # average ReadReq mshr uncacheable latency ((Tick/Count))
system.cpu.icache.ReadReq.avgMshrUncacheableLatency::qkv_clstr.dma 63492.650286                       # average ReadReq mshr uncacheable latency ((Tick/Count))
system.cpu.icache.ReadReq.avgMshrUncacheableLatency::qkv_clstr.qkv.system.qkv_clstr.qkv 63492.650286                       # average ReadReq mshr uncacheable latency ((Tick/Count))
system.cpu.icache.ReadReq.avgMshrUncacheableLatency::qkv_clstr.top.system.qkv_clstr.top 63492.650286                       # average ReadReq mshr uncacheable latency ((Tick/Count))
system.cpu.icache.ReadReq.avgMshrUncacheableLatency::total 63492.650286                       # average ReadReq mshr uncacheable latency ((Tick/Count))
system.cpu.icache.power_state.pwrStateResidencyTicks::UNDEFINED 6643544852000                       # Cumulative time (in ticks) in various power states (Tick)
system.cpu.icache.power_state.pwrStateResidencyTicks::ON 6643544852000                       # Cumulative time (in ticks) in various power states (Tick)
system.cpu.icache.power_state.pwrStateResidencyTicks::CLK_GATED 6643544852000                       # Cumulative time (in ticks) in various power states (Tick)
system.cpu.icache.power_state.pwrStateResidencyTicks::SRAM_RETENTION 6643544852000                       # Cumulative time (in ticks) in various power states (Tick)
system.cpu.icache.power_state.pwrStateResidencyTicks::OFF 6643544852000                       # Cumulative time (in ticks) in various power states (Tick)
system.cpu.icache.tags.tagsInUse                    0                       # Average ticks per tags in use ((Tick/Count))
system.cpu.icache.tags.totalRefs                    0                       # Total number of references to valid blocks. (Count)
system.cpu.icache.tags.sampledRefs                  0                       # Sample count of references to valid blocks. (Count)
system.cpu.icache.tags.avgRefs                    nan                       # Average number of references to valid blocks. ((Count/Count))
system.cpu.icache.tags.warmupTick                   0                       # The tick when the warmup percentage was hit. (Tick)
system.cpu.icache.tags.tagAccesses                  0                       # Number of tag accesses (Count)
system.cpu.icache.tags.dataAccesses                 0                       # Number of data accesses (Count)
system.cpu.icache.tags.power_state.pwrStateResidencyTicks::UNDEFINED 6643544852000                       # Cumulative time (in ticks) in various power states (Tick)
system.cpu.icache.tags.power_state.pwrStateResidencyTicks::ON 6643544852000                       # Cumulative time (in ticks) in various power states (Tick)
system.cpu.icache.tags.power_state.pwrStateResidencyTicks::CLK_GATED 6643544852000                       # Cumulative time (in ticks) in various power states (Tick)
system.cpu.icache.tags.power_state.pwrStateResidencyTicks::SRAM_RETENTION 6643544852000                       # Cumulative time (in ticks) in various power states (Tick)
system.cpu.icache.tags.power_state.pwrStateResidencyTicks::OFF 6643544852000                       # Cumulative time (in ticks) in various power states (Tick)
system.cpu.mmu.dtb.instHits                         0                       # ITB inst hits (Count)
system.cpu.mmu.dtb.instMisses                       0                       # ITB inst misses (Count)
system.cpu.mmu.dtb.readHits                         0                       # DTB read hits (Count)
system.cpu.mmu.dtb.readMisses                       0                       # DTB read misses (Count)
system.cpu.mmu.dtb.writeHits                        0                       # DTB write hits (Count)
system.cpu.mmu.dtb.writeMisses                      0                       # DTB write misses (Count)
system.cpu.mmu.dtb.inserts                          0                       # Number of times an entry is inserted into the TLB (Count)
system.cpu.mmu.dtb.flushTlb                         0                       # Number of times complete TLB was flushed (Count)
system.cpu.mmu.dtb.flushTlbMva                      0                       # Number of times TLB was flushed by MVA (Count)
system.cpu.mmu.dtb.flushTlbMvaAsid                  0                       # Number of times TLB was flushed by MVA & ASID (Count)
system.cpu.mmu.dtb.flushTlbAsid                     0                       # Number of times TLB was flushed by ASID (Count)
system.cpu.mmu.dtb.flushedEntries                   0                       # Number of entries that have been flushed from TLB (Count)
system.cpu.mmu.dtb.alignFaults                      0                       # Number of TLB faults due to alignment restrictions (Count)
system.cpu.mmu.dtb.prefetchFaults                   0                       # Number of TLB faults due to prefetch (Count)
system.cpu.mmu.dtb.domainFaults                     0                       # Number of TLB faults due to domain restrictions (Count)
system.cpu.mmu.dtb.permsFaults                      0                       # Number of TLB faults due to permissions restrictions (Count)
system.cpu.mmu.dtb.readAccesses                     0                       # DTB read accesses (Count)
system.cpu.mmu.dtb.writeAccesses                    0                       # DTB write accesses (Count)
system.cpu.mmu.dtb.instAccesses                     0                       # ITB inst accesses (Count)
system.cpu.mmu.dtb.hits                             0                       # Total TLB (inst and data) hits (Count)
system.cpu.mmu.dtb.misses                           0                       # Total TLB (inst and data) misses (Count)
system.cpu.mmu.dtb.accesses                         0                       # Total TLB (inst and data) accesses (Count)
system.cpu.mmu.dtb_walker.walks                     0                       # Table walker walks requested (Count)
system.cpu.mmu.dtb_walker.requestOrigin_Requested::Data            0                       # Table walker requests started/completed, data/inst (Count)
system.cpu.mmu.dtb_walker.requestOrigin_Requested::Inst            0                       # Table walker requests started/completed, data/inst (Count)
system.cpu.mmu.dtb_walker.requestOrigin_Requested::total            0                       # Table walker requests started/completed, data/inst (Count)
system.cpu.mmu.dtb_walker.requestOrigin_Completed::Data            0                       # Table walker requests started/completed, data/inst (Count)
system.cpu.mmu.dtb_walker.requestOrigin_Completed::Inst            0                       # Table walker requests started/completed, data/inst (Count)
system.cpu.mmu.dtb_walker.requestOrigin_Completed::total            0                       # Table walker requests started/completed, data/inst (Count)
system.cpu.mmu.dtb_walker.requestOrigin::total            0                       # Table walker requests started/completed, data/inst (Count)
system.cpu.mmu.dtb_walker.power_state.pwrStateResidencyTicks::UNDEFINED 6643544852000                       # Cumulative time (in ticks) in various power states (Tick)
system.cpu.mmu.dtb_walker.power_state.pwrStateResidencyTicks::ON 6643544852000                       # Cumulative time (in ticks) in various power states (Tick)
system.cpu.mmu.dtb_walker.power_state.pwrStateResidencyTicks::CLK_GATED 6643544852000                       # Cumulative time (in ticks) in various power states (Tick)
system.cpu.mmu.dtb_walker.power_state.pwrStateResidencyTicks::SRAM_RETENTION 6643544852000                       # Cumulative time (in ticks) in various power states (Tick)
system.cpu.mmu.dtb_walker.power_state.pwrStateResidencyTicks::OFF 6643544852000                       # Cumulative time (in ticks) in various power states (Tick)
system.cpu.mmu.itb.instHits                         0                       # ITB inst hits (Count)
system.cpu.mmu.itb.instMisses                       0                       # ITB inst misses (Count)
system.cpu.mmu.itb.readHits                         0                       # DTB read hits (Count)
system.cpu.mmu.itb.readMisses                       0                       # DTB read misses (Count)
system.cpu.mmu.itb.writeHits                        0                       # DTB write hits (Count)
system.cpu.mmu.itb.writeMisses                      0                       # DTB write misses (Count)
system.cpu.mmu.itb.inserts                          0                       # Number of times an entry is inserted into the TLB (Count)
system.cpu.mmu.itb.flushTlb                         0                       # Number of times complete TLB was flushed (Count)
system.cpu.mmu.itb.flushTlbMva                      0                       # Number of times TLB was flushed by MVA (Count)
system.cpu.mmu.itb.flushTlbMvaAsid                  0                       # Number of times TLB was flushed by MVA & ASID (Count)
system.cpu.mmu.itb.flushTlbAsid                     0                       # Number of times TLB was flushed by ASID (Count)
system.cpu.mmu.itb.flushedEntries                   0                       # Number of entries that have been flushed from TLB (Count)
system.cpu.mmu.itb.alignFaults                      0                       # Number of TLB faults due to alignment restrictions (Count)
system.cpu.mmu.itb.prefetchFaults                   0                       # Number of TLB faults due to prefetch (Count)
system.cpu.mmu.itb.domainFaults                     0                       # Number of TLB faults due to domain restrictions (Count)
system.cpu.mmu.itb.permsFaults                      0                       # Number of TLB faults due to permissions restrictions (Count)
system.cpu.mmu.itb.readAccesses                     0                       # DTB read accesses (Count)
system.cpu.mmu.itb.writeAccesses                    0                       # DTB write accesses (Count)
system.cpu.mmu.itb.instAccesses                     0                       # ITB inst accesses (Count)
system.cpu.mmu.itb.hits                             0                       # Total TLB (inst and data) hits (Count)
system.cpu.mmu.itb.misses                           0                       # Total TLB (inst and data) misses (Count)
system.cpu.mmu.itb.accesses                         0                       # Total TLB (inst and data) accesses (Count)
system.cpu.mmu.itb_walker.walks                     0                       # Table walker walks requested (Count)
system.cpu.mmu.itb_walker.requestOrigin_Requested::Data            0                       # Table walker requests started/completed, data/inst (Count)
system.cpu.mmu.itb_walker.requestOrigin_Requested::Inst            0                       # Table walker requests started/completed, data/inst (Count)
system.cpu.mmu.itb_walker.requestOrigin_Requested::total            0                       # Table walker requests started/completed, data/inst (Count)
system.cpu.mmu.itb_walker.requestOrigin_Completed::Data            0                       # Table walker requests started/completed, data/inst (Count)
system.cpu.mmu.itb_walker.requestOrigin_Completed::Inst            0                       # Table walker requests started/completed, data/inst (Count)
system.cpu.mmu.itb_walker.requestOrigin_Completed::total            0                       # Table walker requests started/completed, data/inst (Count)
system.cpu.mmu.itb_walker.requestOrigin::total            0                       # Table walker requests started/completed, data/inst (Count)
system.cpu.mmu.itb_walker.power_state.pwrStateResidencyTicks::UNDEFINED 6643544852000                       # Cumulative time (in ticks) in various power states (Tick)
system.cpu.mmu.itb_walker.power_state.pwrStateResidencyTicks::ON 6643544852000                       # Cumulative time (in ticks) in various power states (Tick)
system.cpu.mmu.itb_walker.power_state.pwrStateResidencyTicks::CLK_GATED 6643544852000                       # Cumulative time (in ticks) in various power states (Tick)
system.cpu.mmu.itb_walker.power_state.pwrStateResidencyTicks::SRAM_RETENTION 6643544852000                       # Cumulative time (in ticks) in various power states (Tick)
system.cpu.mmu.itb_walker.power_state.pwrStateResidencyTicks::OFF 6643544852000                       # Cumulative time (in ticks) in various power states (Tick)
system.cpu.mmu.stage2_dtb.instHits                  0                       # ITB inst hits (Count)
system.cpu.mmu.stage2_dtb.instMisses                0                       # ITB inst misses (Count)
system.cpu.mmu.stage2_dtb.readHits                  0                       # DTB read hits (Count)
system.cpu.mmu.stage2_dtb.readMisses                0                       # DTB read misses (Count)
system.cpu.mmu.stage2_dtb.writeHits                 0                       # DTB write hits (Count)
system.cpu.mmu.stage2_dtb.writeMisses               0                       # DTB write misses (Count)
system.cpu.mmu.stage2_dtb.inserts                   0                       # Number of times an entry is inserted into the TLB (Count)
system.cpu.mmu.stage2_dtb.flushTlb                  0                       # Number of times complete TLB was flushed (Count)
system.cpu.mmu.stage2_dtb.flushTlbMva               0                       # Number of times TLB was flushed by MVA (Count)
system.cpu.mmu.stage2_dtb.flushTlbMvaAsid            0                       # Number of times TLB was flushed by MVA & ASID (Count)
system.cpu.mmu.stage2_dtb.flushTlbAsid              0                       # Number of times TLB was flushed by ASID (Count)
system.cpu.mmu.stage2_dtb.flushedEntries            0                       # Number of entries that have been flushed from TLB (Count)
system.cpu.mmu.stage2_dtb.alignFaults               0                       # Number of TLB faults due to alignment restrictions (Count)
system.cpu.mmu.stage2_dtb.prefetchFaults            0                       # Number of TLB faults due to prefetch (Count)
system.cpu.mmu.stage2_dtb.domainFaults              0                       # Number of TLB faults due to domain restrictions (Count)
system.cpu.mmu.stage2_dtb.permsFaults               0                       # Number of TLB faults due to permissions restrictions (Count)
system.cpu.mmu.stage2_dtb.readAccesses              0                       # DTB read accesses (Count)
system.cpu.mmu.stage2_dtb.writeAccesses             0                       # DTB write accesses (Count)
system.cpu.mmu.stage2_dtb.instAccesses              0                       # ITB inst accesses (Count)
system.cpu.mmu.stage2_dtb.hits                      0                       # Total TLB (inst and data) hits (Count)
system.cpu.mmu.stage2_dtb.misses                    0                       # Total TLB (inst and data) misses (Count)
system.cpu.mmu.stage2_dtb.accesses                  0                       # Total TLB (inst and data) accesses (Count)
system.cpu.mmu.stage2_dtb_walker.walks              0                       # Table walker walks requested (Count)
system.cpu.mmu.stage2_dtb_walker.requestOrigin_Requested::Data            0                       # Table walker requests started/completed, data/inst (Count)
system.cpu.mmu.stage2_dtb_walker.requestOrigin_Requested::Inst            0                       # Table walker requests started/completed, data/inst (Count)
system.cpu.mmu.stage2_dtb_walker.requestOrigin_Requested::total            0                       # Table walker requests started/completed, data/inst (Count)
system.cpu.mmu.stage2_dtb_walker.requestOrigin_Completed::Data            0                       # Table walker requests started/completed, data/inst (Count)
system.cpu.mmu.stage2_dtb_walker.requestOrigin_Completed::Inst            0                       # Table walker requests started/completed, data/inst (Count)
system.cpu.mmu.stage2_dtb_walker.requestOrigin_Completed::total            0                       # Table walker requests started/completed, data/inst (Count)
system.cpu.mmu.stage2_dtb_walker.requestOrigin::total            0                       # Table walker requests started/completed, data/inst (Count)
system.cpu.mmu.stage2_dtb_walker.power_state.pwrStateResidencyTicks::UNDEFINED 6643544852000                       # Cumulative time (in ticks) in various power states (Tick)
system.cpu.mmu.stage2_dtb_walker.power_state.pwrStateResidencyTicks::ON 6643544852000                       # Cumulative time (in ticks) in various power states (Tick)
system.cpu.mmu.stage2_dtb_walker.power_state.pwrStateResidencyTicks::CLK_GATED 6643544852000                       # Cumulative time (in ticks) in various power states (Tick)
system.cpu.mmu.stage2_dtb_walker.power_state.pwrStateResidencyTicks::SRAM_RETENTION 6643544852000                       # Cumulative time (in ticks) in various power states (Tick)
system.cpu.mmu.stage2_dtb_walker.power_state.pwrStateResidencyTicks::OFF 6643544852000                       # Cumulative time (in ticks) in various power states (Tick)
system.cpu.mmu.stage2_itb.instHits                  0                       # ITB inst hits (Count)
system.cpu.mmu.stage2_itb.instMisses                0                       # ITB inst misses (Count)
system.cpu.mmu.stage2_itb.readHits                  0                       # DTB read hits (Count)
system.cpu.mmu.stage2_itb.readMisses                0                       # DTB read misses (Count)
system.cpu.mmu.stage2_itb.writeHits                 0                       # DTB write hits (Count)
system.cpu.mmu.stage2_itb.writeMisses               0                       # DTB write misses (Count)
system.cpu.mmu.stage2_itb.inserts                   0                       # Number of times an entry is inserted into the TLB (Count)
system.cpu.mmu.stage2_itb.flushTlb                  0                       # Number of times complete TLB was flushed (Count)
system.cpu.mmu.stage2_itb.flushTlbMva               0                       # Number of times TLB was flushed by MVA (Count)
system.cpu.mmu.stage2_itb.flushTlbMvaAsid            0                       # Number of times TLB was flushed by MVA & ASID (Count)
system.cpu.mmu.stage2_itb.flushTlbAsid              0                       # Number of times TLB was flushed by ASID (Count)
system.cpu.mmu.stage2_itb.flushedEntries            0                       # Number of entries that have been flushed from TLB (Count)
system.cpu.mmu.stage2_itb.alignFaults               0                       # Number of TLB faults due to alignment restrictions (Count)
system.cpu.mmu.stage2_itb.prefetchFaults            0                       # Number of TLB faults due to prefetch (Count)
system.cpu.mmu.stage2_itb.domainFaults              0                       # Number of TLB faults due to domain restrictions (Count)
system.cpu.mmu.stage2_itb.permsFaults               0                       # Number of TLB faults due to permissions restrictions (Count)
system.cpu.mmu.stage2_itb.readAccesses              0                       # DTB read accesses (Count)
system.cpu.mmu.stage2_itb.writeAccesses             0                       # DTB write accesses (Count)
system.cpu.mmu.stage2_itb.instAccesses              0                       # ITB inst accesses (Count)
system.cpu.mmu.stage2_itb.hits                      0                       # Total TLB (inst and data) hits (Count)
system.cpu.mmu.stage2_itb.misses                    0                       # Total TLB (inst and data) misses (Count)
system.cpu.mmu.stage2_itb.accesses                  0                       # Total TLB (inst and data) accesses (Count)
system.cpu.mmu.stage2_itb_walker.walks              0                       # Table walker walks requested (Count)
system.cpu.mmu.stage2_itb_walker.requestOrigin_Requested::Data            0                       # Table walker requests started/completed, data/inst (Count)
system.cpu.mmu.stage2_itb_walker.requestOrigin_Requested::Inst            0                       # Table walker requests started/completed, data/inst (Count)
system.cpu.mmu.stage2_itb_walker.requestOrigin_Requested::total            0                       # Table walker requests started/completed, data/inst (Count)
system.cpu.mmu.stage2_itb_walker.requestOrigin_Completed::Data            0                       # Table walker requests started/completed, data/inst (Count)
system.cpu.mmu.stage2_itb_walker.requestOrigin_Completed::Inst            0                       # Table walker requests started/completed, data/inst (Count)
system.cpu.mmu.stage2_itb_walker.requestOrigin_Completed::total            0                       # Table walker requests started/completed, data/inst (Count)
system.cpu.mmu.stage2_itb_walker.requestOrigin::total            0                       # Table walker requests started/completed, data/inst (Count)
system.cpu.mmu.stage2_itb_walker.power_state.pwrStateResidencyTicks::UNDEFINED 6643544852000                       # Cumulative time (in ticks) in various power states (Tick)
system.cpu.mmu.stage2_itb_walker.power_state.pwrStateResidencyTicks::ON 6643544852000                       # Cumulative time (in ticks) in various power states (Tick)
system.cpu.mmu.stage2_itb_walker.power_state.pwrStateResidencyTicks::CLK_GATED 6643544852000                       # Cumulative time (in ticks) in various power states (Tick)
system.cpu.mmu.stage2_itb_walker.power_state.pwrStateResidencyTicks::SRAM_RETENTION 6643544852000                       # Cumulative time (in ticks) in various power states (Tick)
system.cpu.mmu.stage2_itb_walker.power_state.pwrStateResidencyTicks::OFF 6643544852000                       # Cumulative time (in ticks) in various power states (Tick)
system.cpu.power_state.pwrStateResidencyTicks::UNDEFINED 6643544852000                       # Cumulative time (in ticks) in various power states (Tick)
system.cpu.power_state.pwrStateResidencyTicks::ON 6643544852000                       # Cumulative time (in ticks) in various power states (Tick)
system.cpu.power_state.pwrStateResidencyTicks::CLK_GATED 6643544852000                       # Cumulative time (in ticks) in various power states (Tick)
system.cpu.power_state.pwrStateResidencyTicks::SRAM_RETENTION 6643544852000                       # Cumulative time (in ticks) in various power states (Tick)
system.cpu.power_state.pwrStateResidencyTicks::OFF 6643544852000                       # Cumulative time (in ticks) in various power states (Tick)
system.cpu.thread_0.numInsts                        0                       # Number of Instructions committed (Count)
system.cpu.thread_0.numOps                          0                       # Number of Ops committed (Count)
system.cpu.thread_0.numMemRefs                      0                       # Number of Memory References (Count)
system.cpu_clk_domain.clock                       500                       # Clock period in ticks (Tick)
system.cpu_voltage_domain.voltage                   1                       # Voltage in Volts (Volt)
system.iobus.transDist::InvalidCmd             769744                       # Transaction distribution (Count)
system.iobus.transDist::ReadReq                769744                       # Transaction distribution (Count)
system.iobus.transDist::ReadResp               769744                       # Transaction distribution (Count)
system.iobus.transDist::ReadRespWithInvalidate       769744                       # Transaction distribution (Count)
system.iobus.transDist::WriteReq               769744                       # Transaction distribution (Count)
system.iobus.transDist::WriteResp              769744                       # Transaction distribution (Count)
system.iobus.transDist::WriteCompleteResp       769744                       # Transaction distribution (Count)
system.iobus.transDist::WritebackDirty         769744                       # Transaction distribution (Count)
system.iobus.transDist::WritebackClean         769744                       # Transaction distribution (Count)
system.iobus.transDist::WriteClean             769744                       # Transaction distribution (Count)
system.iobus.transDist::CleanEvict             769744                       # Transaction distribution (Count)
system.iobus.transDist::SoftPFReq              769744                       # Transaction distribution (Count)
system.iobus.transDist::SoftPFExReq            769744                       # Transaction distribution (Count)
system.iobus.transDist::HardPFReq              769744                       # Transaction distribution (Count)
system.iobus.transDist::SoftPFResp             769744                       # Transaction distribution (Count)
system.iobus.transDist::HardPFResp             769744                       # Transaction distribution (Count)
system.iobus.transDist::WriteLineReq           769744                       # Transaction distribution (Count)
system.iobus.transDist::UpgradeReq             769744                       # Transaction distribution (Count)
system.iobus.transDist::SCUpgradeReq           769744                       # Transaction distribution (Count)
system.iobus.transDist::UpgradeResp            769744                       # Transaction distribution (Count)
system.iobus.transDist::SCUpgradeFailReq       769744                       # Transaction distribution (Count)
system.iobus.transDist::UpgradeFailResp        769744                       # Transaction distribution (Count)
system.iobus.transDist::ReadExReq              769744                       # Transaction distribution (Count)
system.iobus.transDist::ReadExResp             769744                       # Transaction distribution (Count)
system.iobus.transDist::ReadCleanReq           769744                       # Transaction distribution (Count)
system.iobus.transDist::ReadSharedReq          769744                       # Transaction distribution (Count)
system.iobus.transDist::LoadLockedReq          769744                       # Transaction distribution (Count)
system.iobus.transDist::StoreCondReq           769744                       # Transaction distribution (Count)
system.iobus.transDist::StoreCondFailReq       769744                       # Transaction distribution (Count)
system.iobus.transDist::StoreCondResp          769744                       # Transaction distribution (Count)
system.iobus.transDist::SwapReq                769744                       # Transaction distribution (Count)
system.iobus.transDist::SwapResp               769744                       # Transaction distribution (Count)
system.iobus.transDist::Deprecated_MessageReq       769744                       # Transaction distribution (Count)
system.iobus.transDist::Deprecated_MessageResp       769744                       # Transaction distribution (Count)
system.iobus.transDist::MemFenceReq            769744                       # Transaction distribution (Count)
system.iobus.transDist::MemSyncReq             769744                       # Transaction distribution (Count)
system.iobus.transDist::MemSyncResp            769744                       # Transaction distribution (Count)
system.iobus.transDist::MemFenceResp           769744                       # Transaction distribution (Count)
system.iobus.transDist::CleanSharedReq         769744                       # Transaction distribution (Count)
system.iobus.transDist::CleanSharedResp        769744                       # Transaction distribution (Count)
system.iobus.transDist::CleanInvalidReq        769744                       # Transaction distribution (Count)
system.iobus.transDist::CleanInvalidResp       769744                       # Transaction distribution (Count)
system.iobus.transDist::InvalidDestError       769744                       # Transaction distribution (Count)
system.iobus.transDist::BadAddressError        769744                       # Transaction distribution (Count)
system.iobus.transDist::FunctionalReadError       769744                       # Transaction distribution (Count)
system.iobus.transDist::FunctionalWriteError       769744                       # Transaction distribution (Count)
system.iobus.transDist::PrintReq               769744                       # Transaction distribution (Count)
system.iobus.transDist::FlushReq               769744                       # Transaction distribution (Count)
system.iobus.transDist::InvalidateReq          769744                       # Transaction distribution (Count)
system.iobus.transDist::InvalidateResp         769744                       # Transaction distribution (Count)
system.iobus.transDist::HTMReq                 769744                       # Transaction distribution (Count)
system.iobus.transDist::HTMReqResp             769744                       # Transaction distribution (Count)
system.iobus.transDist::HTMAbort               769744                       # Transaction distribution (Count)
system.iobus.pktCount_system.bridge.mem_side_port::system.realview.flash1.port       769744                       # Packet count per connected requestor and responder (Count)
system.iobus.pktCount_system.bridge.mem_side_port::system.realview.vram.port       769744                       # Packet count per connected requestor and responder (Count)
system.iobus.pktCount_system.bridge.mem_side_port::system.realview.realview_io.pio       769744                       # Packet count per connected requestor and responder (Count)
system.iobus.pktCount_system.bridge.mem_side_port::system.realview.kmi0.pio       769744                       # Packet count per connected requestor and responder (Count)
system.iobus.pktCount_system.bridge.mem_side_port::system.realview.kmi1.pio       769744                       # Packet count per connected requestor and responder (Count)
system.iobus.pktCount_system.bridge.mem_side_port::system.realview.watchdog.pio       769744                       # Packet count per connected requestor and responder (Count)
system.iobus.pktCount_system.bridge.mem_side_port::system.realview.rtc.pio       769744                       # Packet count per connected requestor and responder (Count)
system.iobus.pktCount_system.bridge.mem_side_port::system.realview.pci_host.pio       769744                       # Packet count per connected requestor and responder (Count)
system.iobus.pktCount_system.bridge.mem_side_port::system.realview.energy_ctrl.pio       769744                       # Packet count per connected requestor and responder (Count)
system.iobus.pktCount_system.bridge.mem_side_port::system.realview.pwr_ctrl.pio       769744                       # Packet count per connected requestor and responder (Count)
system.iobus.pktCount_system.bridge.mem_side_port::system.realview.vio0.pio       769744                       # Packet count per connected requestor and responder (Count)
system.iobus.pktCount_system.bridge.mem_side_port::system.realview.vio1.pio       769744                       # Packet count per connected requestor and responder (Count)
system.iobus.pktCount_system.bridge.mem_side_port::system.realview.uart0.pio       769744                       # Packet count per connected requestor and responder (Count)
system.iobus.pktCount_system.bridge.mem_side_port::system.realview.uart1.pio       769744                       # Packet count per connected requestor and responder (Count)
system.iobus.pktCount_system.bridge.mem_side_port::system.realview.uart2.pio       769744                       # Packet count per connected requestor and responder (Count)
system.iobus.pktCount_system.bridge.mem_side_port::system.realview.uart3.pio       769744                       # Packet count per connected requestor and responder (Count)
system.iobus.pktCount_system.bridge.mem_side_port::system.pci_ide.pio       769744                       # Packet count per connected requestor and responder (Count)
system.iobus.pktCount_system.bridge.mem_side_port::system.iocache.cpu_side_port       769744                       # Packet count per connected requestor and responder (Count)
system.iobus.pktCount_system.bridge.mem_side_port::system.qkv_clstr.local_bus.cpu_side_ports[0]       769744                       # Packet count per connected requestor and responder (Count)
system.iobus.pktCount_system.bridge.mem_side_port::total     14625136                       # Packet count per connected requestor and responder (Count)
system.iobus.pktCount_system.pci_ide.dma::system.realview.flash1.port       769744                       # Packet count per connected requestor and responder (Count)
system.iobus.pktCount_system.pci_ide.dma::system.realview.vram.port       769744                       # Packet count per connected requestor and responder (Count)
system.iobus.pktCount_system.pci_ide.dma::system.realview.realview_io.pio       769744                       # Packet count per connected requestor and responder (Count)
system.iobus.pktCount_system.pci_ide.dma::system.realview.kmi0.pio       769744                       # Packet count per connected requestor and responder (Count)
system.iobus.pktCount_system.pci_ide.dma::system.realview.kmi1.pio       769744                       # Packet count per connected requestor and responder (Count)
system.iobus.pktCount_system.pci_ide.dma::system.realview.watchdog.pio       769744                       # Packet count per connected requestor and responder (Count)
system.iobus.pktCount_system.pci_ide.dma::system.realview.rtc.pio       769744                       # Packet count per connected requestor and responder (Count)
system.iobus.pktCount_system.pci_ide.dma::system.realview.pci_host.pio       769744                       # Packet count per connected requestor and responder (Count)
system.iobus.pktCount_system.pci_ide.dma::system.realview.energy_ctrl.pio       769744                       # Packet count per connected requestor and responder (Count)
system.iobus.pktCount_system.pci_ide.dma::system.realview.pwr_ctrl.pio       769744                       # Packet count per connected requestor and responder (Count)
system.iobus.pktCount_system.pci_ide.dma::system.realview.vio0.pio       769744                       # Packet count per connected requestor and responder (Count)
system.iobus.pktCount_system.pci_ide.dma::system.realview.vio1.pio       769744                       # Packet count per connected requestor and responder (Count)
system.iobus.pktCount_system.pci_ide.dma::system.realview.uart0.pio       769744                       # Packet count per connected requestor and responder (Count)
[...]
system.realview.trusted_watchdog.power_state.pwrStateResidencyTicks::UNDEFINED 6643545112000                       # Cumulative time (in ticks) in various power states (Tick)
system.realview.trusted_watchdog.power_state.pwrStateResidencyTicks::ON 6643545112000                       # Cumulative time (in ticks) in various power states (Tick)
system.realview.trusted_watchdog.power_state.pwrStateResidencyTicks::CLK_GATED 6643545112000                       # Cumulative time (in ticks) in various power states (Tick)
system.realview.trusted_watchdog.power_state.pwrStateResidencyTicks::SRAM_RETENTION 6643545112000                       # Cumulative time (in ticks) in various power states (Tick)
system.realview.trusted_watchdog.power_state.pwrStateResidencyTicks::OFF 6643545112000                       # Cumulative time (in ticks) in various power states (Tick)
system.realview.uart0.power_state.pwrStateResidencyTicks::UNDEFINED 6643545112000                       # Cumulative time (in ticks) in various power states (Tick)
system.realview.uart0.power_state.pwrStateResidencyTicks::ON 6643545112000                       # Cumulative time (in ticks) in various power states (Tick)
system.realview.uart0.power_state.pwrStateResidencyTicks::CLK_GATED 6643545112000                       # Cumulative time (in ticks) in various power states (Tick)
system.realview.uart0.power_state.pwrStateResidencyTicks::SRAM_RETENTION 6643545112000                       # Cumulative time (in ticks) in various power states (Tick)
system.realview.uart0.power_state.pwrStateResidencyTicks::OFF 6643545112000                       # Cumulative time (in ticks) in various power states (Tick)
system.realview.uart1.power_state.pwrStateResidencyTicks::UNDEFINED 6643545112000                       # Cumulative time (in ticks) in various power states (Tick)
system.realview.uart1.power_state.pwrStateResidencyTicks::ON 6643545112000                       # Cumulative time (in ticks) in various power states (Tick)
system.realview.uart1.power_state.pwrStateResidencyTicks::CLK_GATED 6643545112000                       # Cumulative time (in ticks) in various power states (Tick)
system.realview.uart1.power_state.pwrStateResidencyTicks::SRAM_RETENTION 6643545112000                       # Cumulative time (in ticks) in various power states (Tick)
system.realview.uart1.power_state.pwrStateResidencyTicks::OFF 6643545112000                       # Cumulative time (in ticks) in various power states (Tick)
system.realview.uart2.power_state.pwrStateResidencyTicks::UNDEFINED 6643545112000                       # Cumulative time (in ticks) in various power states (Tick)
system.realview.uart2.power_state.pwrStateResidencyTicks::ON 6643545112000                       # Cumulative time (in ticks) in various power states (Tick)
system.realview.uart2.power_state.pwrStateResidencyTicks::CLK_GATED 6643545112000                       # Cumulative time (in ticks) in various power states (Tick)
system.realview.uart2.power_state.pwrStateResidencyTicks::SRAM_RETENTION 6643545112000                       # Cumulative time (in ticks) in various power states (Tick)
system.realview.uart2.power_state.pwrStateResidencyTicks::OFF 6643545112000                       # Cumulative time (in ticks) in various power states (Tick)
system.realview.uart3.power_state.pwrStateResidencyTicks::UNDEFINED 6643545112000                       # Cumulative time (in ticks) in various power states (Tick)
system.realview.uart3.power_state.pwrStateResidencyTicks::ON 6643545112000                       # Cumulative time (in ticks) in various power states (Tick)
system.realview.uart3.power_state.pwrStateResidencyTicks::CLK_GATED 6643545112000                       # Cumulative time (in ticks) in various power states (Tick)
system.realview.uart3.power_state.pwrStateResidencyTicks::SRAM_RETENTION 6643545112000                       # Cumulative time (in ticks) in various power states (Tick)
system.realview.uart3.power_state.pwrStateResidencyTicks::OFF 6643545112000                       # Cumulative time (in ticks) in various power states (Tick)
system.realview.vgic.power_state.pwrStateResidencyTicks::UNDEFINED 6643545112000                       # Cumulative time (in ticks) in various power states (Tick)
system.realview.vgic.power_state.pwrStateResidencyTicks::ON 6643545112000                       # Cumulative time (in ticks) in various power states (Tick)
system.realview.vgic.power_state.pwrStateResidencyTicks::CLK_GATED 6643545112000                       # Cumulative time (in ticks) in various power states (Tick)
system.realview.vgic.power_state.pwrStateResidencyTicks::SRAM_RETENTION 6643545112000                       # Cumulative time (in ticks) in various power states (Tick)
system.realview.vgic.power_state.pwrStateResidencyTicks::OFF 6643545112000                       # Cumulative time (in ticks) in various power states (Tick)
system.realview.vio0.power_state.pwrStateResidencyTicks::UNDEFINED 6643545112000                       # Cumulative time (in ticks) in various power states (Tick)
system.realview.vio0.power_state.pwrStateResidencyTicks::ON 6643545112000                       # Cumulative time (in ticks) in various power states (Tick)
system.realview.vio0.power_state.pwrStateResidencyTicks::CLK_GATED 6643545112000                       # Cumulative time (in ticks) in various power states (Tick)
system.realview.vio0.power_state.pwrStateResidencyTicks::SRAM_RETENTION 6643545112000                       # Cumulative time (in ticks) in various power states (Tick)
system.realview.vio0.power_state.pwrStateResidencyTicks::OFF 6643545112000                       # Cumulative time (in ticks) in various power states (Tick)
system.realview.vio1.power_state.pwrStateResidencyTicks::UNDEFINED 6643545112000                       # Cumulative time (in ticks) in various power states (Tick)
system.realview.vio1.power_state.pwrStateResidencyTicks::ON 6643545112000                       # Cumulative time (in ticks) in various power states (Tick)
system.realview.vio1.power_state.pwrStateResidencyTicks::CLK_GATED 6643545112000                       # Cumulative time (in ticks) in various power states (Tick)
system.realview.vio1.power_state.pwrStateResidencyTicks::SRAM_RETENTION 6643545112000                       # Cumulative time (in ticks) in various power states (Tick)
system.realview.vio1.power_state.pwrStateResidencyTicks::OFF 6643545112000                       # Cumulative time (in ticks) in various power states (Tick)
system.realview.vram.power_state.pwrStateResidencyTicks::UNDEFINED 6643545112000                       # Cumulative time (in ticks) in various power states (Tick)
system.realview.vram.power_state.pwrStateResidencyTicks::ON 6643545112000                       # Cumulative time (in ticks) in various power states (Tick)
system.realview.vram.power_state.pwrStateResidencyTicks::CLK_GATED 6643545112000                       # Cumulative time (in ticks) in various power states (Tick)
system.realview.vram.power_state.pwrStateResidencyTicks::SRAM_RETENTION 6643545112000                       # Cumulative time (in ticks) in various power states (Tick)
system.realview.vram.power_state.pwrStateResidencyTicks::OFF 6643545112000                       # Cumulative time (in ticks) in various power states (Tick)
system.realview.watchdog.power_state.pwrStateResidencyTicks::UNDEFINED 6643545112000                       # Cumulative time (in ticks) in various power states (Tick)
system.realview.watchdog.power_state.pwrStateResidencyTicks::ON 6643545112000                       # Cumulative time (in ticks) in various power states (Tick)
system.realview.watchdog.power_state.pwrStateResidencyTicks::CLK_GATED 6643545112000                       # Cumulative time (in ticks) in various power states (Tick)
system.realview.watchdog.power_state.pwrStateResidencyTicks::SRAM_RETENTION 6643545112000                       # Cumulative time (in ticks) in various power states (Tick)
system.realview.watchdog.power_state.pwrStateResidencyTicks::OFF 6643545112000                       # Cumulative time (in ticks) in various power states (Tick)
system.tol2bus.transDist::InvalidCmd        204249598                       # Transaction distribution (Count)
system.tol2bus.transDist::ReadReq           204249598                       # Transaction distribution (Count)
system.tol2bus.transDist::ReadResp          204249598                       # Transaction distribution (Count)
system.tol2bus.transDist::ReadRespWithInvalidate    204249598                       # Transaction distribution (Count)
system.tol2bus.transDist::WriteReq          204249598                       # Transaction distribution (Count)
system.tol2bus.transDist::WriteResp         204249598                       # Transaction distribution (Count)
system.tol2bus.transDist::WriteCompleteResp    204249598                       # Transaction distribution (Count)
system.tol2bus.transDist::WritebackDirty    204249598                       # Transaction distribution (Count)
system.tol2bus.transDist::WritebackClean    204249598                       # Transaction distribution (Count)
system.tol2bus.transDist::WriteClean        204249598                       # Transaction distribution (Count)
system.tol2bus.transDist::CleanEvict        204249598                       # Transaction distribution (Count)
system.tol2bus.transDist::SoftPFReq         204249598                       # Transaction distribution (Count)
system.tol2bus.transDist::SoftPFExReq       204249598                       # Transaction distribution (Count)
system.tol2bus.transDist::HardPFReq         204249598                       # Transaction distribution (Count)
system.tol2bus.transDist::SoftPFResp        204249598                       # Transaction distribution (Count)
system.tol2bus.transDist::HardPFResp        204249598                       # Transaction distribution (Count)
system.tol2bus.transDist::WriteLineReq      204249598                       # Transaction distribution (Count)
system.tol2bus.transDist::UpgradeReq        204249598                       # Transaction distribution (Count)
system.tol2bus.transDist::SCUpgradeReq      204249598                       # Transaction distribution (Count)
system.tol2bus.transDist::UpgradeResp       204249598                       # Transaction distribution (Count)
system.tol2bus.transDist::SCUpgradeFailReq    204249598                       # Transaction distribution (Count)
system.tol2bus.transDist::UpgradeFailResp    204249598                       # Transaction distribution (Count)
system.tol2bus.transDist::ReadExReq         204249598                       # Transaction distribution (Count)
system.tol2bus.transDist::ReadExResp        204249598                       # Transaction distribution (Count)
system.tol2bus.transDist::ReadCleanReq      204249598                       # Transaction distribution (Count)
system.tol2bus.transDist::ReadSharedReq     204249598                       # Transaction distribution (Count)
system.tol2bus.transDist::LoadLockedReq     204249598                       # Transaction distribution (Count)
system.tol2bus.transDist::StoreCondReq      204249598                       # Transaction distribution (Count)
system.tol2bus.transDist::StoreCondFailReq    204249598                       # Transaction distribution (Count)
system.tol2bus.transDist::StoreCondResp     204249598                       # Transaction distribution (Count)
system.tol2bus.transDist::SwapReq           204249598                       # Transaction distribution (Count)
system.tol2bus.transDist::SwapResp          204249598                       # Transaction distribution (Count)
system.tol2bus.transDist::Deprecated_MessageReq    204249598                       # Transaction distribution (Count)
system.tol2bus.transDist::Deprecated_MessageResp    204249598                       # Transaction distribution (Count)
system.tol2bus.transDist::MemFenceReq       204249598                       # Transaction distribution (Count)
system.tol2bus.transDist::MemSyncReq        204249598                       # Transaction distribution (Count)
system.tol2bus.transDist::MemSyncResp       204249598                       # Transaction distribution (Count)
system.tol2bus.transDist::MemFenceResp      204249598                       # Transaction distribution (Count)
system.tol2bus.transDist::CleanSharedReq    204249598                       # Transaction distribution (Count)
system.tol2bus.transDist::CleanSharedResp    204249598                       # Transaction distribution (Count)
system.tol2bus.transDist::CleanInvalidReq    204249598                       # Transaction distribution (Count)
system.tol2bus.transDist::CleanInvalidResp    204249598                       # Transaction distribution (Count)
system.tol2bus.transDist::InvalidDestError    204249598                       # Transaction distribution (Count)
system.tol2bus.transDist::BadAddressError    204249598                       # Transaction distribution (Count)
system.tol2bus.transDist::FunctionalReadError    204249598                       # Transaction distribution (Count)
system.tol2bus.transDist::FunctionalWriteError    204249598                       # Transaction distribution (Count)
system.tol2bus.transDist::PrintReq          204249598                       # Transaction distribution (Count)
system.tol2bus.transDist::FlushReq          204249598                       # Transaction distribution (Count)
system.tol2bus.transDist::InvalidateReq     204249598                       # Transaction distribution (Count)
system.tol2bus.transDist::InvalidateResp    204249598                       # Transaction distribution (Count)
system.tol2bus.transDist::HTMReq            204249598                       # Transaction distribution (Count)
system.tol2bus.transDist::HTMReqResp        204249598                       # Transaction distribution (Count)
system.tol2bus.transDist::HTMAbort          204249598                       # Transaction distribution (Count)
system.tol2bus.pktCount_system.cpu.icache.mem_side_port::system.l2.cpu_side_port    204249598                       # Packet count per connected requestor and responder (Count)
system.tol2bus.pktCount_system.cpu.dcache.mem_side_port::system.l2.cpu_side_port    204249598                       # Packet count per connected requestor and responder (Count)
system.tol2bus.pktCount_system.cpu.mmu.itb_walker.port::system.l2.cpu_side_port    204249598                       # Packet count per connected requestor and responder (Count)
system.tol2bus.pktCount_system.cpu.mmu.dtb_walker.port::system.l2.cpu_side_port    204249598                       # Packet count per connected requestor and responder (Count)
system.tol2bus.pktCount::total              816998392                       # Packet count per connected requestor and responder (Count)
system.tol2bus.pktSize_system.cpu.icache.mem_side_port::system.l2.cpu_side_port    420673564                       # Cumulative packet size per connected requestor and responder (Byte)
system.tol2bus.pktSize_system.cpu.dcache.mem_side_port::system.l2.cpu_side_port    420673564                       # Cumulative packet size per connected requestor and responder (Byte)
system.tol2bus.pktSize_system.cpu.mmu.itb_walker.port::system.l2.cpu_side_port    420673564                       # Cumulative packet size per connected requestor and responder (Byte)
system.tol2bus.pktSize_system.cpu.mmu.dtb_walker.port::system.l2.cpu_side_port    420673564                       # Cumulative packet size per connected requestor and responder (Byte)
system.tol2bus.pktSize::total              1682694256                       # Cumulative packet size per connected requestor and responder (Byte)
system.tol2bus.snoops                               0                       # Total snoops (Count)
system.tol2bus.snoopTraffic                         0                       # Total snoop traffic (Byte)
system.tol2bus.snoopFanout::samples         102124799                       # Request fanout histogram
system.tol2bus.snoopFanout::mean                    0                       # Request fanout histogram
system.tol2bus.snoopFanout::stdev                   0                       # Request fanout histogram
system.tol2bus.snoopFanout::underflows              0      0.00%      0.00% # Request fanout histogram
system.tol2bus.snoopFanout::0               102124799    100.00%    100.00% # Request fanout histogram
system.tol2bus.snoopFanout::1                       0      0.00%    100.00% # Request fanout histogram
system.tol2bus.snoopFanout::2                       0      0.00%    100.00% # Request fanout histogram
system.tol2bus.snoopFanout::overflows               0      0.00%    100.00% # Request fanout histogram
system.tol2bus.snoopFanout::min_value               0                       # Request fanout histogram
system.tol2bus.snoopFanout::max_value               0                       # Request fanout histogram
system.tol2bus.snoopFanout::total           102124799                       # Request fanout histogram
system.tol2bus.power_state.pwrStateResidencyTicks::UNDEFINED 6643545112000                       # Cumulative time (in ticks) in various power states (Tick)
system.tol2bus.power_state.pwrStateResidencyTicks::ON 6643545112000                       # Cumulative time (in ticks) in various power states (Tick)
system.tol2bus.power_state.pwrStateResidencyTicks::CLK_GATED 6643545112000                       # Cumulative time (in ticks) in various power states (Tick)
system.tol2bus.power_state.pwrStateResidencyTicks::SRAM_RETENTION 6643545112000                       # Cumulative time (in ticks) in various power states (Tick)
system.tol2bus.power_state.pwrStateResidencyTicks::OFF 6643545112000                       # Cumulative time (in ticks) in various power states (Tick)
system.tol2bus.reqLayer0.occupancy        53369613500                       # Layer occupancy (ticks) (Tick)
system.tol2bus.reqLayer0.utilization              0.0                       # Layer utilization (Ratio)
system.tol2bus.respLayer0.occupancy       93737120000                       # Layer occupancy (ticks) (Tick)
system.tol2bus.respLayer0.utilization             0.0                       # Layer utilization (Ratio)
system.tol2bus.respLayer1.occupancy        6080465000                       # Layer occupancy (ticks) (Tick)
system.tol2bus.respLayer1.utilization             0.0                       # Layer utilization (Ratio)
system.tol2bus.snoop_filter.totRequests             0                       # Total number of requests made to the snoop filter. (Count)
system.tol2bus.snoop_filter.hitSingleRequests            0                       # Number of requests hitting in the snoop filter with a single holder of the requested data. (Count)
system.tol2bus.snoop_filter.hitMultiRequests            0                       # Number of requests hitting in the snoop filter with multiple (>1) holders of the requested data. (Count)
system.tol2bus.snoop_filter.totSnoops               0                       # Total number of snoops made to the snoop filter. (Count)
system.tol2bus.snoop_filter.hitSingleSnoops            0                       # Number of snoops hitting in the snoop filter with a single holder of the requested data. (Count)
system.tol2bus.snoop_filter.hitMultiSnoops            0                       # Number of snoops hitting in the snoop filter with multiple (>1) holders of the requested data. (Count)
system.voltage_domain.voltage                       1                       # Voltage in Volts (Volt)
system.workload.inst.arm                            0                       # number of arm instructions executed (Count)
system.workload.inst.quiesce                        0                       # number of quiesce instructions executed (Count)

---------- End Simulation Statistics   ----------
