gem5 Simulator System.  https://www.gem5.org
gem5 is copyrighted software; use the --copyright option for details.

gem5 version 23.0.1.0
gem5 compiled Oct 31 2025 14:43:14
gem5 started Nov 16 2025 17:12:42
gem5 executing on f0d943ae80d1, pid 21
command line: gem5/build/RISCV/gem5.opt -re gem5_assignment/run.py

Global frequency set at 1000000000000 ticks per second
Initializing the matrices...Done.
Beginning multiply...
Done.
Time 66.9952 ms
Finished simulation.
