
---------- Begin Simulation Statistics ----------
simSeconds                                   0.738846                       # Number of seconds simulated (Second)
simTicks                                 738845690000                       # Number of ticks simulated (Tick)
finalTick                                738846822000                       # Number of ticks from beginning of simulation (restored from checkpoints and never reset) (Tick)
simFreq                                  1000000000000                       # The number of ticks per simulated second ((Tick/Second))
hostSeconds                                    534.47                       # Real time elapsed on the host (Second)
hostTickRate                               1382385218                       # The number of ticks simulated per host second (ticks/s) ((Tick/Second))
hostMemory                                    4644320                       # Number of bytes of host memory used (Byte)
simInsts                                     93737155                       # Number of instructions simulated (Count)
simOps                                      102879775                       # Number of ops (including micro ops) simulated (Count)
hostInstRate                                   175383                       # Simulator instruction rate (inst/s) ((Count/Second))
hostOpRate                                     192489                       # Simulator op (including micro ops) rate (op/s) ((Count/Second))
system.bridge.power_state.pwrStateResidencyTicks::UNDEFINED 738846822000                       # Cumulative time (in ticks) in various power states (Tick)
system.bridge.power_state.pwrStateResidencyTicks::ON 738846822000                       # Cumulative time (in ticks) in various power states (Tick)
system.bridge.power_state.pwrStateResidencyTicks::CLK_GATED 738846822000                       # Cumulative time (in ticks) in various power states (Tick)
system.bridge.power_state.pwrStateResidencyTicks::SRAM_RETENTION 738846822000                       # Cumulative time (in ticks) in various power states (Tick)
system.bridge.power_state.pwrStateResidencyTicks::OFF 738846822000                       # Cumulative time (in ticks) in various power states (Tick)
system.clk_domain.clock                          1000                       # Clock period in ticks (Tick)
system.cpu.numCycles                       1477691380                       # Number of cpu cycles simulated (Cycle)
system.cpu.numWorkItemsStarted                      0                       # Number of work items this cpu started (Count)
system.cpu.numWorkItemsCompleted                    0                       # Number of work items this cpu completed (Count)
system.cpu.instsAdded                       108971391                       # Number of instructions added to the IQ (excludes non-spec) (Count)
system.cpu.nonSpecInstsAdded                        1                       # Number of non-speculative instructions added to the IQ (Count)
system.cpu.instsIssued                      112712991                       # Number of instructions issued (Count)
system.cpu.squashedInstsIssued                    268                       # Number of squashed instructions issued (Count)
system.cpu.squashedInstsExamined              6091664                       # Number of squashed instructions iterated over during squash; mainly for profiling (Count)
system.cpu.squashedOperandsExamined          12792507                       # Number of squashed operands that are examined and possibly removed from graph (Count)
system.cpu.numIssuedDist::samples           338453140                       # Number of insts issued each cycle
system.cpu.numIssuedDist::mean               0.333024                       # Number of insts issued each cycle
system.cpu.numIssuedDist::stdev              0.962325                       # Number of insts issued each cycle
system.cpu.numIssuedDist::underflows                0      0.00%      0.00% # Number of insts issued each cycle
system.cpu.numIssuedDist::0                 285228925     84.27%     84.27% # Number of insts issued each cycle
system.cpu.numIssuedDist::1                  25124840      7.42%     91.70% # Number of insts issued each cycle
system.cpu.numIssuedDist::2                  14169790      4.19%     95.88% # Number of insts issued each cycle
system.cpu.numIssuedDist::3                   3819443      1.13%     97.01% # Number of insts issued each cycle
system.cpu.numIssuedDist::4                   5861974      1.73%     98.74% # Number of insts issued each cycle
system.cpu.numIssuedDist::5                   1476938      0.44%     99.18% # Number of insts issued each cycle
system.cpu.numIssuedDist::6                   2448780      0.72%     99.90% # Number of insts issued each cycle
system.cpu.numIssuedDist::7                    314624      0.09%    100.00% # Number of insts issued each cycle
system.cpu.numIssuedDist::8                      7826      0.00%    100.00% # Number of insts issued each cycle
system.cpu.numIssuedDist::overflows                 0      0.00%    100.00% # Number of insts issued each cycle
system.cpu.numIssuedDist::min_value                 0                       # Number of insts issued each cycle
system.cpu.numIssuedDist::max_value                 8                       # Number of insts issued each cycle
system.cpu.numIssuedDist::total             338453140                       # Number of insts issued each cycle
system.cpu.statFuBusy::No_OpClass               92580      1.89%      1.89% # attempts to use FU when none available (Count)
system.cpu.statFuBusy::IntAlu                   92580      1.89%      3.77% # attempts to use FU when none available (Count)
system.cpu.statFuBusy::IntMult                  92580      1.89%      5.66% # attempts to use FU when none available (Count)
system.cpu.statFuBusy::IntDiv                   92580      1.89%      7.55% # attempts to use FU when none available (Count)
system.cpu.statFuBusy::FloatAdd                 92580      1.89%      9.43% # attempts to use FU when none available (Count)
system.cpu.statFuBusy::FloatCmp                 92580      1.89%     11.32% # attempts to use FU when none available (Count)
system.cpu.statFuBusy::FloatCvt                 92580      1.89%     13.21% # attempts to use FU when none available (Count)
system.cpu.statFuBusy::FloatMult                92580      1.89%     15.09% # attempts to use FU when none available (Count)
system.cpu.statFuBusy::FloatMultAcc             92580      1.89%     16.98% # attempts to use FU when none available (Count)
system.cpu.statFuBusy::FloatDiv                 92580      1.89%     18.87% # attempts to use FU when none available (Count)
system.cpu.statFuBusy::FloatMisc                92580      1.89%     20.75% # attempts to use FU when none available (Count)
system.cpu.statFuBusy::FloatSqrt                92580      1.89%     22.64% # attempts to use FU when none available (Count)
system.cpu.statFuBusy::SimdAdd                  92580      1.89%     24.53% # attempts to use FU when none available (Count)
system.cpu.statFuBusy::SimdAddAcc               92580      1.89%     26.42% # attempts to use FU when none available (Count)
system.cpu.statFuBusy::SimdAlu                  92580      1.89%     28.30% # attempts to use FU when none available (Count)
system.cpu.statFuBusy::SimdCmp                  92580      1.89%     30.19% # attempts to use FU when none available (Count)
system.cpu.statFuBusy::SimdCvt                  92580      1.89%     32.08% # attempts to use FU when none available (Count)
system.cpu.statFuBusy::SimdMisc                 92580      1.89%     33.96% # attempts to use FU when none available (Count)
system.cpu.statFuBusy::SimdMult                 92580      1.89%     35.85% # attempts to use FU when none available (Count)
system.cpu.statFuBusy::SimdMultAcc              92580      1.89%     37.74% # attempts to use FU when none available (Count)
system.cpu.statFuBusy::SimdShift                92580      1.89%     39.62% # attempts to use FU when none available (Count)
system.cpu.statFuBusy::SimdShiftAcc             92580      1.89%     41.51% # attempts to use FU when none available (Count)
system.cpu.statFuBusy::SimdDiv                  92580      1.89%     43.40% # attempts to use FU when none available (Count)
system.cpu.statFuBusy::SimdSqrt                 92580      1.89%     45.28% # attempts to use FU when none available (Count)
system.cpu.statFuBusy::SimdFloatAdd             92580      1.89%     47.17% # attempts to use FU when none available (Count)
system.cpu.statFuBusy::SimdFloatAlu             92580      1.89%     49.06% # attempts to use FU when none available (Count)
system.cpu.statFuBusy::SimdFloatCmp             92580      1.89%     50.94% # attempts to use FU when none available (Count)
system.cpu.statFuBusy::SimdFloatCvt             92580      1.89%     52.83% # attempts to use FU when none available (Count)
system.cpu.statFuBusy::SimdFloatDiv             92580      1.89%     54.72% # attempts to use FU when none available (Count)
system.cpu.statFuBusy::SimdFloatMisc            92580      1.89%     56.60% # attempts to use FU when none available (Count)
system.cpu.statFuBusy::SimdFloatMult            92580      1.89%     58.49% # attempts to use FU when none available (Count)
system.cpu.statFuBusy::SimdFloatMultAcc         92580      1.89%     60.38% # attempts to use FU when none available (Count)
system.cpu.statFuBusy::SimdFloatSqrt            92580      1.89%     62.26% # attempts to use FU when none available (Count)
system.cpu.statFuBusy::SimdReduceAdd            92580      1.89%     64.15% # attempts to use FU when none available (Count)
system.cpu.statFuBusy::SimdReduceAlu            92580      1.89%     66.04% # attempts to use FU when none available (Count)
system.cpu.statFuBusy::SimdReduceCmp            92580      1.89%     67.92% # attempts to use FU when none available (Count)
system.cpu.statFuBusy::SimdFloatReduceAdd        92580      1.89%     69.81% # attempts to use FU when none available (Count)
system.cpu.statFuBusy::SimdFloatReduceCmp        92580      1.89%     71.70% # attempts to use FU when none available (Count)
system.cpu.statFuBusy::SimdAes                  92580      1.89%     73.58% # attempts to use FU when none available (Count)
system.cpu.statFuBusy::SimdAesMix               92580      1.89%     75.47% # attempts to use FU when none available (Count)
system.cpu.statFuBusy::SimdSha1Hash             92580      1.89%     77.36% # attempts to use FU when none available (Count)
system.cpu.statFuBusy::SimdSha1Hash2            92580      1.89%     79.25% # attempts to use FU when none available (Count)
system.cpu.statFuBusy::SimdSha256Hash           92580      1.89%     81.13% # attempts to use FU when none available (Count)
system.cpu.statFuBusy::SimdSha256Hash2          92580      1.89%     83.02% # attempts to use FU when none available (Count)
system.cpu.statFuBusy::SimdShaSigma2            92580      1.89%     84.91% # attempts to use FU when none available (Count)
system.cpu.statFuBusy::SimdShaSigma3            92580      1.89%     86.79% # attempts to use FU when none available (Count)
system.cpu.statFuBusy::SimdPredAlu              92580      1.89%     88.68% # attempts to use FU when none available (Count)
system.cpu.statFuBusy::MemRead                  92580      1.89%     90.57% # attempts to use FU when none available (Count)
system.cpu.statFuBusy::MemWrite                 92580      1.89%     92.45% # attempts to use FU when none available (Count)
system.cpu.statFuBusy::FloatMemRead             92580      1.89%     94.34% # attempts to use FU when none available (Count)
system.cpu.statFuBusy::FloatMemWrite            92580      1.89%     96.23% # attempts to use FU when none available (Count)
system.cpu.statFuBusy::IprAccess                92580      1.89%     98.11% # attempts to use FU when none available (Count)
system.cpu.statFuBusy::InstPrefetch             92580      1.89%    100.00% # attempts to use FU when none available (Count)
system.cpu.statIssuedInstType_0::No_OpClass    112712991      1.89%      1.89% # Number of instructions issued per FU type, per thread (Count)
system.cpu.statIssuedInstType_0::IntAlu     112712991      1.89%      3.77% # Number of instructions issued per FU type, per thread (Count)
system.cpu.statIssuedInstType_0::IntMult    112712991      1.89%      5.66% # Number of instructions issued per FU type, per thread (Count)
system.cpu.statIssuedInstType_0::IntDiv     112712991      1.89%      7.55% # Number of instructions issued per FU type, per thread (Count)
system.cpu.statIssuedInstType_0::FloatAdd    112712991      1.89%      9.43% # Number of instructions issued per FU type, per thread (Count)
system.cpu.statIssuedInstType_0::FloatCmp    112712991      1.89%     11.32% # Number of instructions issued per FU type, per thread (Count)
system.cpu.statIssuedInstType_0::FloatCvt    112712991      1.89%     13.21% # Number of instructions issued per FU type, per thread (Count)
system.cpu.statIssuedInstType_0::FloatMult    112712991      1.89%     15.09% # Number of instructions issued per FU type, per thread (Count)
system.cpu.statIssuedInstType_0::FloatMultAcc    112712991      1.89%     16.98% # Number of instructions issued per FU type, per thread (Count)
system.cpu.statIssuedInstType_0::FloatDiv    112712991      1.89%     18.87% # Number of instructions issued per FU type, per thread (Count)
system.cpu.statIssuedInstType_0::FloatMisc    112712991      1.89%     20.75% # Number of instructions issued per FU type, per thread (Count)
system.cpu.statIssuedInstType_0::FloatSqrt    112712991      1.89%     22.64% # Number of instructions issued per FU type, per thread (Count)
system.cpu.statIssuedInstType_0::SimdAdd    112712991      1.89%     24.53% # Number of instructions issued per FU type, per thread (Count)
system.cpu.statIssuedInstType_0::SimdAddAcc    112712991      1.89%     26.42% # Number of instructions issued per FU type, per thread (Count)
system.cpu.statIssuedInstType_0::SimdAlu    112712991      1.89%     28.30% # Number of instructions issued per FU type, per thread (Count)
system.cpu.statIssuedInstType_0::SimdCmp    112712991      1.89%     30.19% # Number of instructions issued per FU type, per thread (Count)
system.cpu.statIssuedInstType_0::SimdCvt    112712991      1.89%     32.08% # Number of instructions issued per FU type, per thread (Count)
system.cpu.statIssuedInstType_0::SimdMisc    112712991      1.89%     33.96% # Number of instructions issued per FU type, per thread (Count)
system.cpu.statIssuedInstType_0::SimdMult    112712991      1.89%     35.85% # Number of instructions issued per FU type, per thread (Count)
system.cpu.statIssuedInstType_0::SimdMultAcc    112712991      1.89%     37.74% # Number of instructions issued per FU type, per thread (Count)
system.cpu.statIssuedInstType_0::SimdShift    112712991      1.89%     39.62% # Number of instructions issued per FU type, per thread (Count)
system.cpu.statIssuedInstType_0::SimdShiftAcc    112712991      1.89%     41.51% # Number of instructions issued per FU type, per thread (Count)
system.cpu.statIssuedInstType_0::SimdDiv    112712991      1.89%     43.40% # Number of instructions issued per FU type, per thread (Count)
system.cpu.statIssuedInstType_0::SimdSqrt    112712991      1.89%     45.28% # Number of instructions issued per FU type, per thread (Count)
system.cpu.statIssuedInstType_0::SimdFloatAdd    112712991      1.89%     47.17% # Number of instructions issued per FU type, per thread (Count)
system.cpu.statIssuedInstType_0::SimdFloatAlu    112712991      1.89%     49.06% # Number of instructions issued per FU type, per thread (Count)
system.cpu.statIssuedInstType_0::SimdFloatCmp    112712991      1.89%     50.94% # Number of instructions issued per FU type, per thread (Count)
system.cpu.statIssuedInstType_0::SimdFloatCvt    112712991      1.89%     52.83% # Number of instructions issued per FU type, per thread (Count)
system.cpu.statIssuedInstType_0::SimdFloatDiv    112712991      1.89%     54.72% # Number of instructions issued per FU type, per thread (Count)
system.cpu.statIssuedInstType_0::SimdFloatMisc    112712991      1.89%     56.60% # Number of instructions issued per FU type, per thread (Count)
system.cpu.statIssuedInstType_0::SimdFloatMult    112712991      1.89%     58.49% # Number of instructions issued per FU type, per thread (Count)
system.cpu.statIssuedInstType_0::SimdFloatMultAcc    112712991      1.89%     60.38% # Number of instructions issued per FU type, per thread (Count)
system.cpu.statIssuedInstType_0::SimdFloatSqrt    112712991      1.89%     62.26% # Number of instructions issued per FU type, per thread (Count)
system.cpu.statIssuedInstType_0::SimdReduceAdd    112712991      1.89%     64.15% # Number of instructions issued per FU type, per thread (Count)
system.cpu.statIssuedInstType_0::SimdReduceAlu    112712991      1.89%     66.04% # Number of instructions issued per FU type, per thread (Count)
system.cpu.statIssuedInstType_0::SimdReduceCmp    112712991      1.89%     67.92% # Number of instructions issued per FU type, per thread (Count)
system.cpu.statIssuedInstType_0::SimdFloatReduceAdd    112712991      1.89%     69.81% # Number of instructions issued per FU type, per thread (Count)
system.cpu.statIssuedInstType_0::SimdFloatReduceCmp    112712991      1.89%     71.70% # Number of instructions issued per FU type, per thread (Count)
system.cpu.statIssuedInstType_0::SimdAes    112712991      1.89%     73.58% # Number of instructions issued per FU type, per thread (Count)
system.cpu.statIssuedInstType_0::SimdAesMix    112712991      1.89%     75.47% # Number of instructions issued per FU type, per thread (Count)
system.cpu.statIssuedInstType_0::SimdSha1Hash    112712991      1.89%     77.36% # Number of instructions issued per FU type, per thread (Count)
system.cpu.statIssuedInstType_0::SimdSha1Hash2    112712991      1.89%     79.25% # Number of instructions issued per FU type, per thread (Count)
system.cpu.statIssuedInstType_0::SimdSha256Hash    112712991      1.89%     81.13% # Number of instructions issued per FU type, per thread (Count)
system.cpu.statIssuedInstType_0::SimdSha256Hash2    112712991      1.89%     83.02% # Number of instructions issued per FU type, per thread (Count)
system.cpu.statIssuedInstType_0::SimdShaSigma2    112712991      1.89%     84.91% # Number of instructions issued per FU type, per thread (Count)
system.cpu.statIssuedInstType_0::SimdShaSigma3    112712991      1.89%     86.79% # Number of instructions issued per FU type, per thread (Count)
system.cpu.statIssuedInstType_0::SimdPredAlu    112712991      1.89%     88.68% # Number of instructions issued per FU type, per thread (Count)
system.cpu.statIssuedInstType_0::MemRead    112712991      1.89%     90.57% # Number of instructions issued per FU type, per thread (Count)
system.cpu.statIssuedInstType_0::MemWrite    112712991      1.89%     92.45% # Number of instructions issued per FU type, per thread (Count)
system.cpu.statIssuedInstType_0::FloatMemRead    112712991      1.89%     94.34% # Number of instructions issued per FU type, per thread (Count)
system.cpu.statIssuedInstType_0::FloatMemWrite    112712991      1.89%     96.23% # Number of instructions issued per FU type, per thread (Count)
system.cpu.statIssuedInstType_0::IprAccess    112712991      1.89%     98.11% # Number of instructions issued per FU type, per thread (Count)
system.cpu.statIssuedInstType_0::InstPrefetch    112712991      1.89%    100.00% # Number of instructions issued per FU type, per thread (Count)
system.cpu.statIssuedInstType_0::total     5973788523                       # Number of instructions issued per FU type, per thread (Count)
system.cpu.issueRate                         0.076276                       # Inst issue rate ((Count/Cycle))
system.cpu.fuBusy                               92580                       # FU busy when requested (Count)
system.cpu.fuBusyRate                        0.000821                       # FU busy rate (busy events/executed inst) ((Count/Count))
system.cpu.intInstQueueReads                563971970                       # Number of integer instruction queue reads (Count)
system.cpu.intInstQueueWrites               115063056                       # Number of integer instruction queue writes (Count)
system.cpu.intInstQueueWakeupAccesses       105740296                       # Number of integer instruction queue wakeup accesses (Count)
system.cpu.fpInstQueueReads                         0                       # Number of floating instruction queue reads (Count)
system.cpu.fpInstQueueWrites                        0                       # Number of floating instruction queue writes (Count)
system.cpu.fpInstQueueWakeupAccesses                0                       # Number of floating instruction queue wakeup accesses (Count)
system.cpu.vecInstQueueReads                        0                       # Number of vector instruction queue reads (Count)
system.cpu.vecInstQueueWrites                       0                       # Number of vector instruction queue writes (Count)
system.cpu.vecInstQueueWakeupAccesses               0                       # Number of vector instruction queue wakeup accesses (Count)
system.cpu.intAluAccesses                   112805571                       # Number of integer alu accesses (Count)
system.cpu.fpAluAccesses                            0                       # Number of floating point alu accesses (Count)
system.cpu.vecAluAccesses                           0                       # Number of vector alu accesses (Count)
system.cpu.idleCycles                               0                       # Number of cycles IEW is idle (Cycle)
system.cpu.squashCycles                       1001511                       # Number of cycles IEW is squashing (Cycle)
system.cpu.blockCycles                        2065234                       # Number of cycles IEW is blocking (Cycle)
system.cpu.unblockCycles                       145755                       # Number of cycles IEW is unblocking (Cycle)
system.cpu.dispatchedInsts                  108971392                       # Number of instructions dispatched to IQ (Count)
system.cpu.dispSquashedInsts                      469                       # Number of squashed instructions skipped by dispatch (Count)
system.cpu.dispLoadInsts                      5434261                       # Number of dispatched load instructions (Count)
system.cpu.dispStoreInsts                     4686783                       # Number of dispatched store instructions (Count)
system.cpu.dispNonSpecInsts                         1                       # Number of dispatched non-speculative instructions (Count)
system.cpu.iqFullEvents                         73717                       # Number of times the IQ has become full, causing a stall (Count)
system.cpu.lsqFullEvents                        45239                       # Number of times the LSQ has become full, causing a stall (Count)
system.cpu.memOrderViolationEvents                  0                       # Number of memory order violations (Count)
system.cpu.predictedTakenIncorrect             586785                       # Number of branches that were predicted taken incorrectly (Count)
system.cpu.predictedNotTakenIncorrect          457476                       # Number of branches that were predicted not taken incorrectly (Count)
system.cpu.branchMispredicts                  1044261                       # Number of branch mispredicts detected at execute (Count)
system.cpu.numInsts                         112190334                       # Number of executed instructions (Count)
system.cpu.numLoadInsts                      11426352                       # Number of load instructions executed (Count)
system.cpu.numSquashedInsts                    522657                       # Number of squashed instructions skipped in execute (Count)
system.cpu.numSwp                                   0                       # Number of swp insts executed (Count)
system.cpu.numNop                                   0                       # Number of nop insts executed (Count)
system.cpu.numRefs                           16064530                       # Number of memory reference insts executed (Count)
system.cpu.numBranches                       14289046                       # Number of branches executed (Count)
system.cpu.numStoreInsts                      4638178                       # Number of stores executed (Count)
system.cpu.numRate                           0.075923                       # Inst execution rate ((Count/Cycle))
system.cpu.instsToCommit                    112190334                       # Cumulative count of insts sent to commit (Count)
system.cpu.writebackCount                   105740296                       # Cumulative count of insts written-back (Count)
system.cpu.producerInst                      63655542                       # Number of instructions producing a value (Count)
system.cpu.consumerInst                     159208781                       # Number of instructions consuming a value (Count)
system.cpu.wbRate                            0.071558                       # Insts written-back per cycle ((Count/Cycle))
system.cpu.wbFanout                          0.399824                       # Average fanout of values written-back ((Count/Count))
system.cpu.timesIdled                        14449279                       # Number of times that the entire CPU went into an idle state and unscheduled itself (Count)
system.cpu.idleCycles                      1139238240                       # Total number of cycles that the CPU has spent unscheduled due to idling (Cycle)
system.cpu.committedInsts                    93737116                       # Number of Instructions Simulated (Count)
system.cpu.committedOps                     102879728                       # Number of Ops (including micro ops) Simulated (Count)
system.cpu.cpi                              15.764208                       # CPI: Cycles Per Instruction ((Cycle/Count))
system.cpu.totalCpi                         15.764208                       # CPI: Total CPI of All Threads ((Cycle/Count))
system.cpu.ipc                               0.063435                       # IPC: Instructions Per Cycle ((Count/Cycle))
system.cpu.totalIpc                          0.063435                       # IPC: Total IPC of All Threads ((Count/Cycle))
system.cpu.intRegfileReads                  149187450                       # Number of integer regfile reads (Count)
system.cpu.intRegfileWrites                  83849558                       # Number of integer regfile writes (Count)
system.cpu.ccRegfileReads                   351968671                       # number of cc regfile reads (Count)
system.cpu.ccRegfileWrites                   82452875                       # number of cc regfile writes (Count)
system.cpu.miscRegfileReads                 425981781                       # number of misc regfile reads (Count)
system.cpu.MemDepUnit__0.insertedLoads        5434261                       # Number of loads inserted to the mem dependence unit. (Count)
system.cpu.MemDepUnit__0.insertedStores       4686783                       # Number of stores inserted to the mem dependence unit. (Count)
system.cpu.MemDepUnit__0.conflictingLoads            0                       # Number of conflicting loads. (Count)
system.cpu.MemDepUnit__0.conflictingStores            0                       # Number of conflicting stores. (Count)
system.cpu.MemDepUnit__1.insertedLoads              0                       # Number of loads inserted to the mem dependence unit. (Count)
system.cpu.MemDepUnit__1.insertedStores             0                       # Number of stores inserted to the mem dependence unit. (Count)
system.cpu.MemDepUnit__1.conflictingLoads            0                       # Number of conflicting loads. (Count)
system.cpu.MemDepUnit__1.conflictingStores            0                       # Number of conflicting stores. (Count)
system.cpu.MemDepUnit__2.insertedLoads              0                       # Number of loads inserted to the mem dependence unit. (Count)
system.cpu.MemDepUnit__2.insertedStores             0                       # Number of stores inserted to the mem dependence unit. (Count)
system.cpu.MemDepUnit__2.conflictingLoads            0                       # Number of conflicting loads. (Count)
system.cpu.MemDepUnit__2.conflictingStores            0                       # Number of conflicting stores. (Count)
system.cpu.MemDepUnit__3.insertedLoads              0                       # Number of loads inserted to the mem dependence unit. (Count)
system.cpu.MemDepUnit__3.insertedStores             0                       # Number of stores inserted to the mem dependence unit. (Count)
system.cpu.MemDepUnit__3.conflictingLoads            0                       # Number of conflicting loads. (Count)
system.cpu.MemDepUnit__3.conflictingStores            0                       # Number of conflicting stores. (Count)
system.cpu.branchPred.lookups                14904309                       # Number of BP lookups (Count)
system.cpu.branchPred.condPredicted          11340472                       # Number of conditional branches predicted (Count)
system.cpu.branchPred.condIncorrect           1001593                       # Number of conditional branches incorrect (Count)
system.cpu.branchPred.BTBLookups              6015548                       # Number of BTB lookups (Count)
system.cpu.branchPred.BTBHits                 6003093                       # Number of BTB hits (Count)
system.cpu.branchPred.BTBHitRatio            0.997930                       # BTB Hit Ratio (Ratio)
system.cpu.branchPred.RASUsed                 1556863                       # Number of times the RAS was used to get a target. (Count)
system.cpu.branchPred.RASIncorrect               1564                       # Number of incorrect RAS predictions. (Count)
system.cpu.branchPred.indirectLookups               0                       # Number of indirect predictor lookups. (Count)
system.cpu.branchPred.indirectHits                  0                       # Number of indirect target hits. (Count)
system.cpu.branchPred.indirectMisses                0                       # Number of indirect misses. (Count)
system.cpu.branchPred.indirectMispredicted            0                       # Number of mispredicted indirect branches. (Count)
system.cpu.commit.commitSquashedInsts         6091669                       # The number of squashed insts skipped by commit (Count)
system.cpu.commit.commitNonSpecStalls               1                       # The number of times commit has been forced to stall to communicate backwards (Count)
system.cpu.commit.branchMispredicts           1001511                       # The number of times a branch was mispredicted (Count)
system.cpu.commit.numCommittedDist::samples    336982815                       # Number of insts commited each cycle
system.cpu.commit.numCommittedDist::mean     0.305297                       # Number of insts commited each cycle
system.cpu.commit.numCommittedDist::stdev     1.081111                       # Number of insts commited each cycle
system.cpu.commit.numCommittedDist::underflows            0      0.00%      0.00% # Number of insts commited each cycle
system.cpu.commit.numCommittedDist::0       293830291     87.19%     87.19% # Number of insts commited each cycle
system.cpu.commit.numCommittedDist::1        22447849      6.66%     93.86% # Number of insts commited each cycle
system.cpu.commit.numCommittedDist::2         7531021      2.23%     96.09% # Number of insts commited each cycle
system.cpu.commit.numCommittedDist::3         4070647      1.21%     97.30% # Number of insts commited each cycle
system.cpu.commit.numCommittedDist::4         3229570      0.96%     98.26% # Number of insts commited each cycle
system.cpu.commit.numCommittedDist::5         1270358      0.38%     98.63% # Number of insts commited each cycle
system.cpu.commit.numCommittedDist::6         1044991      0.31%     98.94% # Number of insts commited each cycle
system.cpu.commit.numCommittedDist::7          846824      0.25%     99.20% # Number of insts commited each cycle
system.cpu.commit.numCommittedDist::8         2711264      0.80%    100.00% # Number of insts commited each cycle
system.cpu.commit.numCommittedDist::overflows            0      0.00%    100.00% # Number of insts commited each cycle
system.cpu.commit.numCommittedDist::min_value            0                       # Number of insts commited each cycle
system.cpu.commit.numCommittedDist::max_value            8                       # Number of insts commited each cycle
system.cpu.commit.numCommittedDist::total    336982815                       # Number of insts commited each cycle
system.cpu.commit.instsCommitted             93737116                       # Number of instructions committed (Count)
system.cpu.commit.opsCommitted              102879728                       # Number of ops (including micro ops) committed (Count)
system.cpu.commit.memRefs                     9590579                       # Number of memory references committed (Count)
system.cpu.commit.loads                       4976151                       # Number of loads committed (Count)
system.cpu.commit.amos                              0                       # Number of atomic instructions committed (Count)
system.cpu.commit.membars                           0                       # Number of memory barriers committed (Count)
system.cpu.commit.branches                   14043783                       # Number of branches committed (Count)
system.cpu.commit.vectorInstructions                0                       # Number of committed Vector instructions. (Count)
system.cpu.commit.floating                          0                       # Number of committed floating point instructions. (Count)
system.cpu.commit.integer                    92822617                       # Number of committed integer instructions. (Count)
system.cpu.commit.functionCalls               1998723                       # Number of function calls committed. (Count)
system.cpu.commit.committedInstType_0::No_OpClass    102879728      1.89%      1.89% # Class of committed instruction (Count)
system.cpu.commit.committedInstType_0::IntAlu    102879728      1.89%      3.77% # Class of committed instruction (Count)
system.cpu.commit.committedInstType_0::IntMult    102879728      1.89%      5.66% # Class of committed instruction (Count)
system.cpu.commit.committedInstType_0::IntDiv    102879728      1.89%      7.55% # Class of committed instruction (Count)
system.cpu.commit.committedInstType_0::FloatAdd    102879728      1.89%      9.43% # Class of committed instruction (Count)
system.cpu.commit.committedInstType_0::FloatCmp    102879728      1.89%     11.32% # Class of committed instruction (Count)
system.cpu.commit.committedInstType_0::FloatCvt    102879728      1.89%     13.21% # Class of committed instruction (Count)
system.cpu.commit.committedInstType_0::FloatMult    102879728      1.89%     15.09% # Class of committed instruction (Count)
system.cpu.commit.committedInstType_0::FloatMultAcc    102879728      1.89%     16.98% # Class of committed instruction (Count)
system.cpu.commit.committedInstType_0::FloatDiv    102879728      1.89%     18.87% # Class of committed instruction (Count)
system.cpu.commit.committedInstType_0::FloatMisc    102879728      1.89%     20.75% # Class of committed instruction (Count)
system.cpu.commit.committedInstType_0::FloatSqrt    102879728      1.89%     22.64% # Class of committed instruction (Count)
system.cpu.commit.committedInstType_0::SimdAdd    102879728      1.89%     24.53% # Class of committed instruction (Count)
system.cpu.commit.committedInstType_0::SimdAddAcc    102879728      1.89%     26.42% # Class of committed instruction (Count)
system.cpu.commit.committedInstType_0::SimdAlu    102879728      1.89%     28.30% # Class of committed instruction (Count)
system.cpu.commit.committedInstType_0::SimdCmp    102879728      1.89%     30.19% # Class of committed instruction (Count)
system.cpu.commit.committedInstType_0::SimdCvt    102879728      1.89%     32.08% # Class of committed instruction (Count)
system.cpu.commit.committedInstType_0::SimdMisc    102879728      1.89%     33.96% # Class of committed instruction (Count)
system.cpu.commit.committedInstType_0::SimdMult    102879728      1.89%     35.85% # Class of committed instruction (Count)
system.cpu.commit.committedInstType_0::SimdMultAcc    102879728      1.89%     37.74% # Class of committed instruction (Count)
system.cpu.commit.committedInstType_0::SimdShift    102879728      1.89%     39.62% # Class of committed instruction (Count)
system.cpu.commit.committedInstType_0::SimdShiftAcc    102879728      1.89%     41.51% # Class of committed instruction (Count)
system.cpu.commit.committedInstType_0::SimdDiv    102879728      1.89%     43.40% # Class of committed instruction (Count)
system.cpu.commit.committedInstType_0::SimdSqrt    102879728      1.89%     45.28% # Class of committed instruction (Count)
system.cpu.commit.committedInstType_0::SimdFloatAdd    102879728      1.89%     47.17% # Class of committed instruction (Count)
system.cpu.commit.committedInstType_0::SimdFloatAlu    102879728      1.89%     49.06% # Class of committed instruction (Count)
system.cpu.commit.committedInstType_0::SimdFloatCmp    102879728      1.89%     50.94% # Class of committed instruction (Count)
system.cpu.commit.committedInstType_0::SimdFloatCvt    102879728      1.89%     52.83% # Class of committed instruction (Count)
system.cpu.commit.committedInstType_0::SimdFloatDiv    102879728      1.89%     54.72% # Class of committed instruction (Count)
system.cpu.commit.committedInstType_0::SimdFloatMisc    102879728      1.89%     56.60% # Class of committed instruction (Count)
system.cpu.commit.committedInstType_0::SimdFloatMult    102879728      1.89%     58.49% # Class of committed instruction (Count)
system.cpu.commit.committedInstType_0::SimdFloatMultAcc    102879728      1.89%     60.38% # Class of committed instruction (Count)
system.cpu.commit.committedInstType_0::SimdFloatSqrt    102879728      1.89%     62.26% # Class of committed instruction (Count)
system.cpu.commit.committedInstType_0::SimdReduceAdd    102879728      1.89%     64.15% # Class of committed instruction (Count)
system.cpu.commit.committedInstType_0::SimdReduceAlu    102879728      1.89%     66.04% # Class of committed instruction (Count)
system.cpu.commit.committedInstType_0::SimdReduceCmp    102879728      1.89%     67.92% # Class of committed instruction (Count)
system.cpu.commit.committedInstType_0::SimdFloatReduceAdd    102879728      1.89%     69.81% # Class of committed instruction (Count)
system.cpu.commit.committedInstType_0::SimdFloatReduceCmp    102879728      1.89%     71.70% # Class of committed instruction (Count)
system.cpu.commit.committedInstType_0::SimdAes    102879728      1.89%     73.58% # Class of committed instruction (Count)
system.cpu.commit.committedInstType_0::SimdAesMix    102879728      1.89%     75.47% # Class of committed instruction (Count)
system.cpu.commit.committedInstType_0::SimdSha1Hash    102879728      1.89%     77.36% # Class of committed instruction (Count)
system.cpu.commit.committedInstType_0::SimdSha1Hash2    102879728      1.89%     79.25% # Class of committed instruction (Count)
system.cpu.commit.committedInstType_0::SimdSha256Hash    102879728      1.89%     81.13% # Class of committed instruction (Count)
system.cpu.commit.committedInstType_0::SimdSha256Hash2    102879728      1.89%     83.02% # Class of committed instruction (Count)
system.cpu.commit.committedInstType_0::SimdShaSigma2    102879728      1.89%     84.91% # Class of committed instruction (Count)
system.cpu.commit.committedInstType_0::SimdShaSigma3    102879728      1.89%     86.79% # Class of committed instruction (Count)
system.cpu.commit.committedInstType_0::SimdPredAlu    102879728      1.89%     88.68% # Class of committed instruction (Count)
system.cpu.commit.committedInstType_0::MemRead    102879728      1.89%     90.57% # Class of committed instruction (Count)
system.cpu.commit.committedInstType_0::MemWrite    102879728      1.89%     92.45% # Class of committed instruction (Count)
system.cpu.commit.committedInstType_0::FloatMemRead    102879728      1.89%     94.34% # Class of committed instruction (Count)
system.cpu.commit.committedInstType_0::FloatMemWrite    102879728      1.89%     96.23% # Class of committed instruction (Count)
system.cpu.commit.committedInstType_0::IprAccess    102879728      1.89%     98.11% # Class of committed instruction (Count)
system.cpu.commit.committedInstType_0::InstPrefetch    102879728      1.89%    100.00% # Class of committed instruction (Count)
system.cpu.commit.committedInstType_0::total   5452625584                       # Class of committed instruction (Count)
system.cpu.commit.commitEligibleSamples       2711264                       # number cycles where commit BW limit reached (Cycle)
system.cpu.dcache.blockedCycles::no_mshrs            8                       # number of cycles access was blocked (Cycle)
system.cpu.dcache.blockedCycles::no_targets            8                       # number of cycles access was blocked (Cycle)
system.cpu.dcache.blockedCauses::no_mshrs            8                       # number of times access was blocked (Count)
system.cpu.dcache.blockedCauses::no_targets            8                       # number of times access was blocked (Count)
system.cpu.dcache.avgBlocked::no_mshrs              1                       # average number of cycles each access was blocked ((Cycle/Count))
system.cpu.dcache.avgBlocked::no_targets            1                       # average number of cycles each access was blocked ((Cycle/Count))
system.cpu.dcache.overallMshrUncacheable::writebacks      8387679                       # number of overall MSHR uncacheable misses (Count)
system.cpu.dcache.overallMshrUncacheable::functional      8387679                       # number of overall MSHR uncacheable misses (Count)
system.cpu.dcache.overallMshrUncacheable::interrupt      8387679                       # number of overall MSHR uncacheable misses (Count)
system.cpu.dcache.overallMshrUncacheable::cpu.mmu.dtb_walker      8387679                       # number of overall MSHR uncacheable misses (Count)
system.cpu.dcache.overallMshrUncacheable::cpu.mmu.itb_walker      8387679                       # number of overall MSHR uncacheable misses (Count)
system.cpu.dcache.overallMshrUncacheable::cpu.mmu.stage2_dtb_walker      8387679                       # number of overall MSHR uncacheable misses (Count)
system.cpu.dcache.overallMshrUncacheable::cpu.mmu.stage2_itb_walker      8387679                       # number of overall MSHR uncacheable misses (Count)
system.cpu.dcache.overallMshrUncacheable::cpu.inst      8387679                       # number of overall MSHR uncacheable misses (Count)
system.cpu.dcache.overallMshrUncacheable::cpu.data      8387679                       # number of overall MSHR uncacheable misses (Count)
system.cpu.dcache.overallMshrUncacheable::pci_ide      8387679                       # number of overall MSHR uncacheable misses (Count)
system.cpu.dcache.overallMshrUncacheable::qkv_clstr.dma      8387679                       # number of overall MSHR uncacheable misses (Count)
system.cpu.dcache.overallMshrUncacheable::qkv_clstr.qkv.system.qkv_clstr.qkv      8387679                       # number of overall MSHR uncacheable misses (Count)
system.cpu.dcache.overallMshrUncacheable::qkv_clstr.top.system.qkv_clstr.top      8387679                       # number of overall MSHR uncacheable misses (Count)
system.cpu.dcache.overallMshrUncacheable::total    109039827                       # number of overall MSHR uncacheable misses (Count)
system.cpu.dcache.overallMshrUncacheableLatency::writebacks 317462755000                       # number of overall MSHR uncacheable ticks (Tick)
system.cpu.dcache.overallMshrUncacheableLatency::functional 317462755000                       # number of overall MSHR uncacheable ticks (Tick)
system.cpu.dcache.overallMshrUncacheableLatency::interrupt 317462755000                       # number of overall MSHR uncacheable ticks (Tick)
system.cpu.dcache.overallMshrUncacheableLatency::cpu.mmu.dtb_walker 317462755000                       # number of overall MSHR uncacheable ticks (Tick)
system.cpu.dcache.overallMshrUncacheableLatency::cpu.mmu.itb_walker 317462755000                       # number of overall MSHR uncacheable ticks (Tick)
system.cpu.dcache.overallMshrUncacheableLatency::cpu.mmu.stage2_dtb_walker 317462755000                       # number of overall MSHR uncacheable ticks (Tick)
system.cpu.dcache.overallMshrUncacheableLatency::cpu.mmu.stage2_itb_walker 317462755000                       # number of overall MSHR uncacheable ticks (Tick)
system.cpu.dcache.overallMshrUncacheableLatency::cpu.inst 317462755000                       # number of overall MSHR uncacheable ticks (Tick)
system.cpu.dcache.overallMshrUncacheableLatency::cpu.data 317462755000                       # number of overall MSHR uncacheable ticks (Tick)
system.cpu.dcache.overallMshrUncacheableLatency::pci_ide 317462755000                       # number of overall MSHR uncacheable ticks (Tick)
system.cpu.dcache.overallMshrUncacheableLatency::qkv_clstr.dma 317462755000                       # number of overall MSHR uncacheable ticks (Tick)
system.cpu.dcache.overallMshrUncacheableLatency::qkv_clstr.qkv.system.qkv_clstr.qkv 317462755000                       # number of overall MSHR uncacheable ticks (Tick)
system.cpu.dcache.overallMshrUncacheableLatency::qkv_clstr.top.system.qkv_clstr.top 317462755000                       # number of overall MSHR uncacheable ticks (Tick)
system.cpu.dcache.overallMshrUncacheableLatency::total 4127015815000                       # number of overall MSHR uncacheable ticks (Tick)
system.cpu.dcache.overallAvgMshrUncacheableLatency::writebacks 37848.701053                       # average overall mshr uncacheable latency ((Cycle/Count))
system.cpu.dcache.overallAvgMshrUncacheableLatency::functional 37848.701053                       # average overall mshr uncacheable latency ((Cycle/Count))
system.cpu.dcache.overallAvgMshrUncacheableLatency::interrupt 37848.701053                       # average overall mshr uncacheable latency ((Cycle/Count))
system.cpu.dcache.overallAvgMshrUncacheableLatency::cpu.mmu.dtb_walker 37848.701053                       # average overall mshr uncacheable latency ((Cycle/Count))
system.cpu.dcache.overallAvgMshrUncacheableLatency::cpu.mmu.itb_walker 37848.701053                       # average overall mshr uncacheable latency ((Cycle/Count))
system.cpu.dcache.overallAvgMshrUncacheableLatency::cpu.mmu.stage2_dtb_walker 37848.701053                       # average overall mshr uncacheable latency ((Cycle/Count))
system.cpu.dcache.overallAvgMshrUncacheableLatency::cpu.mmu.stage2_itb_walker 37848.701053                       # average overall mshr uncacheable latency ((Cycle/Count))
system.cpu.dcache.overallAvgMshrUncacheableLatency::cpu.inst 37848.701053                       # average overall mshr uncacheable latency ((Cycle/Count))
system.cpu.dcache.overallAvgMshrUncacheableLatency::cpu.data 37848.701053                       # average overall mshr uncacheable latency ((Cycle/Count))
system.cpu.dcache.overallAvgMshrUncacheableLatency::pci_ide 37848.701053                       # average overall mshr uncacheable latency ((Cycle/Count))
system.cpu.dcache.overallAvgMshrUncacheableLatency::qkv_clstr.dma 37848.701053                       # average overall mshr uncacheable latency ((Cycle/Count))
system.cpu.dcache.overallAvgMshrUncacheableLatency::qkv_clstr.qkv.system.qkv_clstr.qkv 37848.701053                       # average overall mshr uncacheable latency ((Cycle/Count))
system.cpu.dcache.overallAvgMshrUncacheableLatency::qkv_clstr.top.system.qkv_clstr.top 37848.701053                       # average overall mshr uncacheable latency ((Cycle/Count))
system.cpu.dcache.overallAvgMshrUncacheableLatency::total 37848.701053                       # average overall mshr uncacheable latency ((Cycle/Count))
system.cpu.dcache.replacements                      0                       # number of replacements (Count)
system.cpu.dcache.ReadReq.mshrUncacheable::writebacks      3773251                       # number of ReadReq MSHR uncacheable (Count)
system.cpu.dcache.ReadReq.mshrUncacheable::functional      3773251                       # number of ReadReq MSHR uncacheable (Count)
system.cpu.dcache.ReadReq.mshrUncacheable::interrupt      3773251                       # number of ReadReq MSHR uncacheable (Count)
system.cpu.dcache.ReadReq.mshrUncacheable::cpu.mmu.dtb_walker      3773251                       # number of ReadReq MSHR uncacheable (Count)
system.cpu.dcache.ReadReq.mshrUncacheable::cpu.mmu.itb_walker      3773251                       # number of ReadReq MSHR uncacheable (Count)
system.cpu.dcache.ReadReq.mshrUncacheable::cpu.mmu.stage2_dtb_walker      3773251                       # number of ReadReq MSHR uncacheable (Count)
system.cpu.dcache.ReadReq.mshrUncacheable::cpu.mmu.stage2_itb_walker      3773251                       # number of ReadReq MSHR uncacheable (Count)
system.cpu.dcache.ReadReq.mshrUncacheable::cpu.inst      3773251                       # number of ReadReq MSHR uncacheable (Count)
system.cpu.dcache.ReadReq.mshrUncacheable::cpu.data      3773251                       # number of ReadReq MSHR uncacheable (Count)
system.cpu.dcache.ReadReq.mshrUncacheable::pci_ide      3773251                       # number of ReadReq MSHR uncacheable (Count)
system.cpu.dcache.ReadReq.mshrUncacheable::qkv_clstr.dma      3773251                       # number of ReadReq MSHR uncacheable (Count)
system.cpu.dcache.ReadReq.mshrUncacheable::qkv_clstr.qkv.system.qkv_clstr.qkv      3773251                       # number of ReadReq MSHR uncacheable (Count)
system.cpu.dcache.ReadReq.mshrUncacheable::qkv_clstr.top.system.qkv_clstr.top      3773251                       # number of ReadReq MSHR uncacheable (Count)
system.cpu.dcache.ReadReq.mshrUncacheable::total     49052263                       # number of ReadReq MSHR uncacheable (Count)
system.cpu.dcache.ReadReq.mshrUncacheableLatency::writebacks 317462755000                       # number of ReadReq MSHR uncacheable ticks (Tick)
system.cpu.dcache.ReadReq.mshrUncacheableLatency::functional 317462755000                       # number of ReadReq MSHR uncacheable ticks (Tick)
system.cpu.dcache.ReadReq.mshrUncacheableLatency::interrupt 317462755000                       # number of ReadReq MSHR uncacheable ticks (Tick)
system.cpu.dcache.ReadReq.mshrUncacheableLatency::cpu.mmu.dtb_walker 317462755000                       # number of ReadReq MSHR uncacheable ticks (Tick)
system.cpu.dcache.ReadReq.mshrUncacheableLatency::cpu.mmu.itb_walker 317462755000                       # number of ReadReq MSHR uncacheable ticks (Tick)
system.cpu.dcache.ReadReq.mshrUncacheableLatency::cpu.mmu.stage2_dtb_walker 317462755000                       # number of ReadReq MSHR uncacheable ticks (Tick)
system.cpu.dcache.ReadReq.mshrUncacheableLatency::cpu.mmu.stage2_itb_walker 317462755000                       # number of ReadReq MSHR uncacheable ticks (Tick)
system.cpu.dcache.ReadReq.mshrUncacheableLatency::cpu.inst 317462755000                       # number of ReadReq MSHR uncacheable ticks (Tick)
system.cpu.dcache.ReadReq.mshrUncacheableLatency::cpu.data 317462755000                       # number of ReadReq MSHR uncacheable ticks (Tick)
system.cpu.dcache.ReadReq.mshrUncacheableLatency::pci_ide 317462755000                       # number of ReadReq MSHR uncacheable ticks (Tick)
system.cpu.dcache.ReadReq.mshrUncacheableLatency::qkv_clstr.dma 317462755000                       # number of ReadReq MSHR uncacheable ticks (Tick)
system.cpu.dcache.ReadReq.mshrUncacheableLatency::qkv_clstr.qkv.system.qkv_clstr.qkv 317462755000                       # number of ReadReq MSHR uncacheable ticks (Tick)
system.cpu.dcache.ReadReq.mshrUncacheableLatency::qkv_clstr.top.system.qkv_clstr.top 317462755000                       # number of ReadReq MSHR uncacheable ticks (Tick)
system.cpu.dcache.ReadReq.mshrUncacheableLatency::total 4127015815000                       # number of ReadReq MSHR uncacheable ticks (Tick)
system.cpu.dcache.ReadReq.avgMshrUncacheableLatency::writebacks 84135.074767                       # average ReadReq mshr uncacheable latency ((Tick/Count))
system.cpu.dcache.ReadReq.avgMshrUncacheableLatency::functional 84135.074767                       # average ReadReq mshr uncacheable latency ((Tick/Count))
system.cpu.dcache.ReadReq.avgMshrUncacheableLatency::interrupt 84135.074767                       # average ReadReq mshr uncacheable latency ((Tick/Count))
system.cpu.dcache.ReadReq.avgMshrUncacheableLatency::cpu.mmu.dtb_walker 84135.074767                       # average ReadReq mshr uncacheable latency ((Tick/Count))
system.cpu.dcache.ReadReq.avgMshrUncacheableLatency::cpu.mmu.itb_walker 84135.074767                       # average ReadReq mshr uncacheable latency ((Tick/Count))
system.cpu.dcache.ReadReq.avgMshrUncacheableLatency::cpu.mmu.stage2_dtb_walker 84135.074767                       # average ReadReq mshr uncacheable latency ((Tick/Count))
system.cpu.dcache.ReadReq.avgMshrUncacheableLatency::cpu.mmu.stage2_itb_walker 84135.074767                       # average ReadReq mshr uncacheable latency ((Tick/Count))
system.cpu.dcache.ReadReq.avgMshrUncacheableLatency::cpu.inst 84135.074767                       # average ReadReq mshr uncacheable latency ((Tick/Count))
system.cpu.dcache.ReadReq.avgMshrUncacheableLatency::cpu.data 84135.074767                       # average ReadReq mshr uncacheable latency ((Tick/Count))
system.cpu.dcache.ReadReq.avgMshrUncacheableLatency::pci_ide 84135.074767                       # average ReadReq mshr uncacheable latency ((Tick/Count))
system.cpu.dcache.ReadReq.avgMshrUncacheableLatency::qkv_clstr.dma 84135.074767                       # average ReadReq mshr uncacheable latency ((Tick/Count))
system.cpu.dcache.ReadReq.avgMshrUncacheableLatency::qkv_clstr.qkv.system.qkv_clstr.qkv 84135.074767                       # average ReadReq mshr uncacheable latency ((Tick/Count))
system.cpu.dcache.ReadReq.avgMshrUncacheableLatency::qkv_clstr.top.system.qkv_clstr.top 84135.074767                       # average ReadReq mshr uncacheable latency ((Tick/Count))
system.cpu.dcache.ReadReq.avgMshrUncacheableLatency::total 84135.074767                       # average ReadReq mshr uncacheable latency ((Tick/Count))
system.cpu.dcache.WriteReq.mshrUncacheable::writebacks      4614428                       # number of WriteReq MSHR uncacheable (Count)
system.cpu.dcache.WriteReq.mshrUncacheable::functional      4614428                       # number of WriteReq MSHR uncacheable (Count)
system.cpu.dcache.WriteReq.mshrUncacheable::interrupt      4614428                       # number of WriteReq MSHR uncacheable (Count)
system.cpu.dcache.WriteReq.mshrUncacheable::cpu.mmu.dtb_walker      4614428                       # number of WriteReq MSHR uncacheable (Count)
system.cpu.dcache.WriteReq.mshrUncacheable::cpu.mmu.itb_walker      4614428                       # number of WriteReq MSHR uncacheable (Count)
system.cpu.dcache.WriteReq.mshrUncacheable::cpu.mmu.stage2_dtb_walker      4614428                       # number of WriteReq MSHR uncacheable (Count)
system.cpu.dcache.WriteReq.mshrUncacheable::cpu.mmu.stage2_itb_walker      4614428                       # number of WriteReq MSHR uncacheable (Count)
system.cpu.dcache.WriteReq.mshrUncacheable::cpu.inst      4614428                       # number of WriteReq MSHR uncacheable (Count)
system.cpu.dcache.WriteReq.mshrUncacheable::cpu.data      4614428                       # number of WriteReq MSHR uncacheable (Count)
system.cpu.dcache.WriteReq.mshrUncacheable::pci_ide      4614428                       # number of WriteReq MSHR uncacheable (Count)
system.cpu.dcache.WriteReq.mshrUncacheable::qkv_clstr.dma      4614428                       # number of WriteReq MSHR uncacheable (Count)
system.cpu.dcache.WriteReq.mshrUncacheable::qkv_clstr.qkv.system.qkv_clstr.qkv      4614428                       # number of WriteReq MSHR uncacheable (Count)
system.cpu.dcache.WriteReq.mshrUncacheable::qkv_clstr.top.system.qkv_clstr.top      4614428                       # number of WriteReq MSHR uncacheable (Count)
system.cpu.dcache.WriteReq.mshrUncacheable::total     59987564                       # number of WriteReq MSHR uncacheable (Count)
system.cpu.dcache.power_state.pwrStateResidencyTicks::UNDEFINED 738846822000                       # Cumulative time (in ticks) in various power states (Tick)
system.cpu.dcache.power_state.pwrStateResidencyTicks::ON 738846822000                       # Cumulative time (in ticks) in various power states (Tick)
system.cpu.dcache.power_state.pwrStateResidencyTicks::CLK_GATED 738846822000                       # Cumulative time (in ticks) in various power states (Tick)
system.cpu.dcache.power_state.pwrStateResidencyTicks::SRAM_RETENTION 738846822000                       # Cumulative time (in ticks) in various power states (Tick)
system.cpu.dcache.power_state.pwrStateResidencyTicks::OFF 738846822000                       # Cumulative time (in ticks) in various power states (Tick)
system.cpu.dcache.tags.tagsInUse                    0                       # Average ticks per tags in use ((Tick/Count))
system.cpu.dcache.tags.totalRefs                    0                       # Total number of references to valid blocks. (Count)
system.cpu.dcache.tags.sampledRefs                  0                       # Sample count of references to valid blocks. (Count)
system.cpu.dcache.tags.avgRefs                    nan                       # Average number of references to valid blocks. ((Count/Count))
system.cpu.dcache.tags.warmupTick                   0                       # The tick when the warmup percentage was hit. (Tick)
system.cpu.dcache.tags.tagAccesses                  0                       # Number of tag accesses (Count)
system.cpu.dcache.tags.dataAccesses                 0                       # Number of data accesses (Count)
system.cpu.dcache.tags.power_state.pwrStateResidencyTicks::UNDEFINED 738846822000                       # Cumulative time (in ticks) in various power states (Tick)
system.cpu.dcache.tags.power_state.pwrStateResidencyTicks::ON 738846822000                       # Cumulative time (in ticks) in various power states (Tick)
system.cpu.dcache.tags.power_state.pwrStateResidencyTicks::CLK_GATED 738846822000                       # Cumulative time (in ticks) in various power states (Tick)
system.cpu.dcache.tags.power_state.pwrStateResidencyTicks::SRAM_RETENTION 738846822000                       # Cumulative time (in ticks) in various power states (Tick)
system.cpu.dcache.tags.power_state.pwrStateResidencyTicks::OFF 738846822000                       # Cumulative time (in ticks) in various power states (Tick)
system.cpu.decode.idleCycles                314055013                       # Number of cycles decode is idle (Cycle)
system.cpu.decode.blockedCycles               4823683                       # Number of cycles decode is blocked (Cycle)
system.cpu.decode.runCycles                  18549928                       # Number of cycles decode is running (Cycle)
system.cpu.decode.unblockCycles                 23005                       # Number of cycles decode is unblocking (Cycle)
system.cpu.decode.squashCycles                1001511                       # Number of cycles decode is squashing (Cycle)
system.cpu.decode.branchResolved              6013014                       # Number of times decode resolved a branch (Count)
system.cpu.decode.branchMispred                    82                       # Number of times decode detected a branch misprediction (Count)
system.cpu.decode.decodedInsts              109026113                       # Number of instructions handled by decode (Count)
system.cpu.decode.squashedInsts                   352                       # Number of squashed instructions handled by decode (Count)
system.cpu.fetch.icacheStallCycles          316165296                       # Number of cycles fetch is stalled on an Icache miss (Cycle)
system.cpu.fetch.insts                       99374971                       # Number of instructions fetch has processed (Count)
system.cpu.fetch.branches                    14904309                       # Number of branches that fetch encountered (Count)
system.cpu.fetch.predictedBranches            7559956                       # Number of branches that fetch has predicted taken (Count)
system.cpu.fetch.cycles                      21286251                       # Number of cycles fetch has run and was not squashing or blocked (Cycle)
system.cpu.fetch.squashCycles                 2003186                       # Number of cycles fetch has spent squashing (Cycle)
system.cpu.fetch.cacheLines                  11510937                       # Number of cache lines fetched (Count)
system.cpu.fetch.icacheSquashes               1000599                       # Number of outstanding Icache misses that were squashed (Count)
system.cpu.fetch.nisnDist::samples          338453140                       # Number of instructions fetched each cycle (Total)
system.cpu.fetch.nisnDist::mean              0.322191                       # Number of instructions fetched each cycle (Total)
system.cpu.fetch.nisnDist::stdev             1.468689                       # Number of instructions fetched each cycle (Total)
system.cpu.fetch.nisnDist::underflows               0      0.00%      0.00% # Number of instructions fetched each cycle (Total)
system.cpu.fetch.nisnDist::0                319866318     94.51%     94.51% # Number of instructions fetched each cycle (Total)
system.cpu.fetch.nisnDist::1                  1609068      0.48%     94.98% # Number of instructions fetched each cycle (Total)
system.cpu.fetch.nisnDist::2                  1519397      0.45%     95.43% # Number of instructions fetched each cycle (Total)
system.cpu.fetch.nisnDist::3                  1482928      0.44%     95.87% # Number of instructions fetched each cycle (Total)
system.cpu.fetch.nisnDist::4                  1531420      0.45%     96.32% # Number of instructions fetched each cycle (Total)
system.cpu.fetch.nisnDist::5                  1370128      0.40%     96.73% # Number of instructions fetched each cycle (Total)
system.cpu.fetch.nisnDist::6                   468049      0.14%     96.87% # Number of instructions fetched each cycle (Total)
system.cpu.fetch.nisnDist::7                   681245      0.20%     97.07% # Number of instructions fetched each cycle (Total)
system.cpu.fetch.nisnDist::8                  9924587      2.93%    100.00% # Number of instructions fetched each cycle (Total)
system.cpu.fetch.nisnDist::overflows                0      0.00%    100.00% # Number of instructions fetched each cycle (Total)
system.cpu.fetch.nisnDist::min_value                0                       # Number of instructions fetched each cycle (Total)
system.cpu.fetch.nisnDist::max_value                8                       # Number of instructions fetched each cycle (Total)
system.cpu.fetch.nisnDist::total            338453140                       # Number of instructions fetched each cycle (Total)
system.cpu.fetch.branchRate                  0.010086                       # Number of branch fetches per cycle (Ratio)
system.cpu.fetch.rate                        0.067250                       # Number of inst fetches per cycle ((Count/Cycle))
system.cpu.icache.blockedCycles::no_mshrs            0                       # number of cycles access was blocked (Cycle)
system.cpu.icache.blockedCycles::no_targets            0                       # number of cycles access was blocked (Cycle)
system.cpu.icache.blockedCauses::no_mshrs            0                       # number of times access was blocked (Count)
system.cpu.icache.blockedCauses::no_targets            0                       # number of times access was blocked (Count)
system.cpu.icache.avgBlocked::no_mshrs            nan                       # average number of cycles each access was blocked ((Cycle/Count))
system.cpu.icache.avgBlocked::no_targets          nan                       # average number of cycles each access was blocked ((Cycle/Count))
system.cpu.icache.overallMshrUncacheable::writebacks     11510937                       # number of overall MSHR uncacheable misses (Count)
system.cpu.icache.overallMshrUncacheable::functional     11510937                       # number of overall MSHR uncacheable misses (Count)
system.cpu.icache.overallMshrUncacheable::interrupt     11510937                       # number of overall MSHR uncacheable misses (Count)
system.cpu.icache.overallMshrUncacheable::cpu.mmu.dtb_walker     11510937                       # number of overall MSHR uncacheable misses (Count)
system.cpu.icache.overallMshrUncacheable::cpu.mmu.itb_walker     11510937                       # number of overall MSHR uncacheable misses (Count)
system.cpu.icache.overallMshrUncacheable::cpu.mmu.stage2_dtb_walker     11510937                       # number of overall MSHR uncacheable misses (Count)
system.cpu.icache.overallMshrUncacheable::cpu.mmu.stage2_itb_walker     11510937                       # number of overall MSHR uncacheable misses (Count)
system.cpu.icache.overallMshrUncacheable::cpu.inst     11510937                       # number of overall MSHR uncacheable misses (Count)
system.cpu.icache.overallMshrUncacheable::cpu.data     11510937                       # number of overall MSHR uncacheable misses (Count)
system.cpu.icache.overallMshrUncacheable::pci_ide     11510937                       # number of overall MSHR uncacheable misses (Count)
system.cpu.icache.overallMshrUncacheable::qkv_clstr.dma     11510937                       # number of overall MSHR uncacheable misses (Count)
system.cpu.icache.overallMshrUncacheable::qkv_clstr.qkv.system.qkv_clstr.qkv     11510937                       # number of overall MSHR uncacheable misses (Count)
system.cpu.icache.overallMshrUncacheable::qkv_clstr.top.system.qkv_clstr.top     11510937                       # number of overall MSHR uncacheable misses (Count)
system.cpu.icache.overallMshrUncacheable::total    149642181                       # number of overall MSHR uncacheable misses (Count)
system.cpu.icache.overallMshrUncacheableLatency::writebacks 763079258500                       # number of overall MSHR uncacheable ticks (Tick)
system.cpu.icache.overallMshrUncacheableLatency::functional 763079258500                       # number of overall MSHR uncacheable ticks (Tick)
system.cpu.icache.overallMshrUncacheableLatency::interrupt 763079258500                       # number of overall MSHR uncacheable ticks (Tick)
system.cpu.icache.overallMshrUncacheableLatency::cpu.mmu.dtb_walker 763079258500                       # number of overall MSHR uncacheable ticks (Tick)
system.cpu.icache.overallMshrUncacheableLatency::cpu.mmu.itb_walker 763079258500                       # number of overall MSHR uncacheable ticks (Tick)
system.cpu.icache.overallMshrUncacheableLatency::cpu.mmu.stage2_dtb_walker 763079258500                       # number of overall MSHR uncacheable ticks (Tick)
system.cpu.icache.overallMshrUncacheableLatency::cpu.mmu.stage2_itb_walker 763079258500                       # number of overall MSHR uncacheable ticks (Tick)
system.cpu.icache.overallMshrUncacheableLatency::cpu.inst 763079258500                       # number of overall MSHR uncacheable ticks (Tick)
system.cpu.icache.overallMshrUncacheableLatency::cpu.data 763079258500                       # number of overall MSHR uncacheable ticks (Tick)
system.cpu.icache.overallMshrUncacheableLatency::pci_ide 763079258500                       # number of overall MSHR uncacheable ticks (Tick)
system.cpu.icache.overallMshrUncacheableLatency::qkv_clstr.dma 763079258500                       # number of overall MSHR uncacheable ticks (Tick)
system.cpu.icache.overallMshrUncacheableLatency::qkv_clstr.qkv.system.qkv_clstr.qkv 763079258500                       # number of overall MSHR uncacheable ticks (Tick)
system.cpu.icache.overallMshrUncacheableLatency::qkv_clstr.top.system.qkv_clstr.top 763079258500                       # number of overall MSHR uncacheable ticks (Tick)
system.cpu.icache.overallMshrUncacheableLatency::total 9920030360500                       # number of overall MSHR uncacheable ticks (Tick)
system.cpu.icache.overallAvgMshrUncacheableLatency::writebacks 66291.671868                       # average overall mshr uncacheable latency ((Cycle/Count))
system.cpu.icache.overallAvgMshrUncacheableLatency::functional 66291.671868                       # average overall mshr uncacheable latency ((Cycle/Count))
system.cpu.icache.overallAvgMshrUncacheableLatency::interrupt 66291.671868                       # average overall mshr uncacheable latency ((Cycle/Count))
system.cpu.icache.overallAvgMshrUncacheableLatency::cpu.mmu.dtb_walker 66291.671868                       # average overall mshr uncacheable latency ((Cycle/Count))
system.cpu.icache.overallAvgMshrUncacheableLatency::cpu.mmu.itb_walker 66291.671868                       # average overall mshr uncacheable latency ((Cycle/Count))
system.cpu.icache.overallAvgMshrUncacheableLatency::cpu.mmu.stage2_dtb_walker 66291.671868                       # average overall mshr uncacheable latency ((Cycle/Count))
system.cpu.icache.overallAvgMshrUncacheableLatency::cpu.mmu.stage2_itb_walker 66291.671868                       # average overall mshr uncacheable latency ((Cycle/Count))
system.cpu.icache.overallAvgMshrUncacheableLatency::cpu.inst 66291.671868                       # average overall mshr uncacheable latency ((Cycle/Count))
system.cpu.icache.overallAvgMshrUncacheableLatency::cpu.data 66291.671868                       # average overall mshr uncacheable latency ((Cycle/Count))
system.cpu.icache.overallAvgMshrUncacheableLatency::pci_ide 66291.671868                       # average overall mshr uncacheable latency ((Cycle/Count))
system.cpu.icache.overallAvgMshrUncacheableLatency::qkv_clstr.dma 66291.671868                       # average overall mshr uncacheable latency ((Cycle/Count))
system.cpu.icache.overallAvgMshrUncacheableLatency::qkv_clstr.qkv.system.qkv_clstr.qkv 66291.671868                       # average overall mshr uncacheable latency ((Cycle/Count))
system.cpu.icache.overallAvgMshrUncacheableLatency::qkv_clstr.top.system.qkv_clstr.top 66291.671868                       # average overall mshr uncacheable latency ((Cycle/Count))
system.cpu.icache.overallAvgMshrUncacheableLatency::total 66291.671868                       # average overall mshr uncacheable latency ((Cycle/Count))
system.cpu.icache.replacements                      0                       # number of replacements (Count)
system.cpu.icache.ReadReq.mshrUncacheable::writebacks     11510937                       # number of ReadReq MSHR uncacheable (Count)
system.cpu.icache.ReadReq.mshrUncacheable::functional     11510937                       # number of ReadReq MSHR uncacheable (Count)
system.cpu.icache.ReadReq.mshrUncacheable::interrupt     11510937                       # number of ReadReq MSHR uncacheable (Count)
system.cpu.icache.ReadReq.mshrUncacheable::cpu.mmu.dtb_walker     11510937                       # number of ReadReq MSHR uncacheable (Count)
system.cpu.icache.ReadReq.mshrUncacheable::cpu.mmu.itb_walker     11510937                       # number of ReadReq MSHR uncacheable (Count)
system.cpu.icache.ReadReq.mshrUncacheable::cpu.mmu.stage2_dtb_walker     11510937                       # number of ReadReq MSHR uncacheable (Count)
system.cpu.icache.ReadReq.mshrUncacheable::cpu.mmu.stage2_itb_walker     11510937                       # number of ReadReq MSHR uncacheable (Count)
system.cpu.icache.ReadReq.mshrUncacheable::cpu.inst     11510937                       # number of ReadReq MSHR uncacheable (Count)
system.cpu.icache.ReadReq.mshrUncacheable::cpu.data     11510937                       # number of ReadReq MSHR uncacheable (Count)
system.cpu.icache.ReadReq.mshrUncacheable::pci_ide     11510937                       # number of ReadReq MSHR uncacheable (Count)
system.cpu.icache.ReadReq.mshrUncacheable::qkv_clstr.dma     11510937                       # number of ReadReq MSHR uncacheable (Count)
system.cpu.icache.ReadReq.mshrUncacheable::qkv_clstr.qkv.system.qkv_clstr.qkv     11510937                       # number of ReadReq MSHR uncacheable (Count)
system.cpu.icache.ReadReq.mshrUncacheable::qkv_clstr.top.system.qkv_clstr.top     11510937                       # number of ReadReq MSHR uncacheable (Count)
system.cpu.icache.ReadReq.mshrUncacheable::total    149642181                       # number of ReadReq MSHR uncacheable (Count)
system.cpu.icache.ReadReq.mshrUncacheableLatency::writebacks 763079258500                       # number of ReadReq MSHR uncacheable ticks (Tick)
system.cpu.icache.ReadReq.mshrUncacheableLatency::functional 763079258500                       # number of ReadReq MSHR uncacheable ticks (Tick)
system.cpu.icache.ReadReq.mshrUncacheableLatency::interrupt 763079258500                       # number of ReadReq MSHR uncacheable ticks (Tick)
system.cpu.icache.ReadReq.mshrUncacheableLatency::cpu.mmu.dtb_walker 763079258500                       # number of ReadReq MSHR uncacheable ticks (Tick)
system.cpu.icache.ReadReq.mshrUncacheableLatency::cpu.mmu.itb_walker 763079258500                       # number of ReadReq MSHR uncacheable ticks (Tick)
system.cpu.icache.ReadReq.mshrUncacheableLatency::cpu.mmu.stage2_dtb_walker 763079258500                       # number of ReadReq MSHR uncacheable ticks (Tick)
system.cpu.icache.ReadReq.mshrUncacheableLatency::cpu.mmu.stage2_itb_walker 763079258500                       # number of ReadReq MSHR uncacheable ticks (Tick)
system.cpu.icache.ReadReq.mshrUncacheableLatency::cpu.inst 763079258500                       # number of ReadReq MSHR uncacheable ticks (Tick)
system.cpu.icache.ReadReq.mshrUncacheableLatency::cpu.data 763079258500                       # number of ReadReq MSHR uncacheable ticks (Tick)
system.cpu.icache.ReadReq.mshrUncacheableLatency::pci_ide 763079258500                       # number of ReadReq MSHR uncacheable ticks (Tick)
system.cpu.icache.ReadReq.mshrUncacheableLatency::qkv_clstr.dma 763079258500                       # number of ReadReq MSHR uncacheable ticks (Tick)
system.cpu.icache.ReadReq.mshrUncacheableLatency::qkv_clstr.qkv.system.qkv_clstr.qkv 763079258500                       # number of ReadReq MSHR uncacheable ticks (Tick)
system.cpu.icache.ReadReq.mshrUncacheableLatency::qkv_clstr.top.system.qkv_clstr.top 763079258500                       # number of ReadReq MSHR uncacheable ticks (Tick)
system.cpu.icache.ReadReq.mshrUncacheableLatency::total 9920030360500                       # number of ReadReq MSHR uncacheable ticks (Tick)
system.cpu.icache.ReadReq.avgMshrUncacheableLatency::writebacks 66291.671868                       # average ReadReq mshr uncacheable latency ((Tick/Count))
system.cpu.icache.ReadReq.avgMshrUncacheableLatency::functional 66291.671868                       # average ReadReq mshr uncacheable latency ((Tick/Count))
system.cpu.icache.ReadReq.avgMshrUncacheableLatency::interrupt 66291.671868                       # average ReadReq mshr uncacheable latency ((Tick/Count))
system.cpu.icache.ReadReq.avgMshrUncacheableLatency::cpu.mmu.dtb_walker 66291.671868                       # average ReadReq mshr uncacheable latency ((Tick/Count))
system.cpu.icache.ReadReq.avgMshrUncacheableLatency::cpu.mmu.itb_walker 66291.671868                       # average ReadReq mshr uncacheable latency ((Tick/Count))
system.cpu.icache.ReadReq.avgMshrUncacheableLatency::cpu.mmu.stage2_dtb_walker 66291.671868                       # average ReadReq mshr uncacheable latency ((Tick/Count))
system.cpu.icache.ReadReq.avgMshrUncacheableLatency::cpu.mmu.stage2_itb_walker 66291.671868                       # average ReadReq mshr uncacheable latency ((Tick/Count))
system.cpu.icache.ReadReq.avgMshrUncacheableLatency::cpu.inst 66291.671868                       # average ReadReq mshr uncacheable latency ((Tick/Count))
system.cpu.icache.ReadReq.avgMshrUncacheableLatency::cpu.data 66291.671868                       # average ReadReq mshr uncacheable latency ((Tick/Count))
system.cpu.icache.ReadReq.avgMshrUncacheableLatency::pci_ide 66291.671868                       # average ReadReq mshr uncacheable latency ((Tick/Count))
system.cpu.icache.ReadReq.avgMshrUncacheableLatency::qkv_clstr.dma 66291.671868                       # average ReadReq mshr uncacheable latency ((Tick/Count))
system.cpu.icache.ReadReq.avgMshrUncacheableLatency::qkv_clstr.qkv.system.qkv_clstr.qkv 66291.671868                       # average ReadReq mshr uncacheable latency ((Tick/Count))
system.cpu.icache.ReadReq.avgMshrUncacheableLatency::qkv_clstr.top.system.qkv_clstr.top 66291.671868                       # average ReadReq mshr uncacheable latency ((Tick/Count))
system.cpu.icache.ReadReq.avgMshrUncacheableLatency::total 66291.671868                       # average ReadReq mshr uncacheable latency ((Tick/Count))
system.cpu.icache.power_state.pwrStateResidencyTicks::UNDEFINED 738846822000                       # Cumulative time (in ticks) in various power states (Tick)
system.cpu.icache.power_state.pwrStateResidencyTicks::ON 738846822000                       # Cumulative time (in ticks) in various power states (Tick)
system.cpu.icache.power_state.pwrStateResidencyTicks::CLK_GATED 738846822000                       # Cumulative time (in ticks) in various power states (Tick)
system.cpu.icache.power_state.pwrStateResidencyTicks::SRAM_RETENTION 738846822000                       # Cumulative time (in ticks) in various power states (Tick)
system.cpu.icache.power_state.pwrStateResidencyTicks::OFF 738846822000                       # Cumulative time (in ticks) in various power states (Tick)
system.cpu.icache.tags.tagsInUse                    0                       # Average ticks per tags in use ((Tick/Count))
system.cpu.icache.tags.totalRefs                    0                       # Total number of references to valid blocks. (Count)
system.cpu.icache.tags.sampledRefs                  0                       # Sample count of references to valid blocks. (Count)
system.cpu.icache.tags.avgRefs                    nan                       # Average number of references to valid blocks. ((Count/Count))
system.cpu.icache.tags.warmupTick                   0                       # The tick when the warmup percentage was hit. (Tick)
system.cpu.icache.tags.tagAccesses                  0                       # Number of tag accesses (Count)
system.cpu.icache.tags.dataAccesses                 0                       # Number of data accesses (Count)
system.cpu.icache.tags.power_state.pwrStateResidencyTicks::UNDEFINED 738846822000                       # Cumulative time (in ticks) in various power states (Tick)
system.cpu.icache.tags.power_state.pwrStateResidencyTicks::ON 738846822000                       # Cumulative time (in ticks) in various power states (Tick)
[...]
system.realview.trusted_watchdog.power_state.pwrStateResidencyTicks::UNDEFINED 738846964000                       # Cumulative time (in ticks) in various power states (Tick)
system.realview.trusted_watchdog.power_state.pwrStateResidencyTicks::ON 738846964000                       # Cumulative time (in ticks) in various power states (Tick)
system.realview.trusted_watchdog.power_state.pwrStateResidencyTicks::CLK_GATED 738846964000                       # Cumulative time (in ticks) in various power states (Tick)
system.realview.trusted_watchdog.power_state.pwrStateResidencyTicks::SRAM_RETENTION 738846964000                       # Cumulative time (in ticks) in various power states (Tick)
system.realview.trusted_watchdog.power_state.pwrStateResidencyTicks::OFF 738846964000                       # Cumulative time (in ticks) in various power states (Tick)
system.realview.uart0.power_state.pwrStateResidencyTicks::UNDEFINED 738846964000                       # Cumulative time (in ticks) in various power states (Tick)
system.realview.uart0.power_state.pwrStateResidencyTicks::ON 738846964000                       # Cumulative time (in ticks) in various power states (Tick)
system.realview.uart0.power_state.pwrStateResidencyTicks::CLK_GATED 738846964000                       # Cumulative time (in ticks) in various power states (Tick)
system.realview.uart0.power_state.pwrStateResidencyTicks::SRAM_RETENTION 738846964000                       # Cumulative time (in ticks) in various power states (Tick)
system.realview.uart0.power_state.pwrStateResidencyTicks::OFF 738846964000                       # Cumulative time (in ticks) in various power states (Tick)
system.realview.uart1.power_state.pwrStateResidencyTicks::UNDEFINED 738846964000                       # Cumulative time (in ticks) in various power states (Tick)
system.realview.uart1.power_state.pwrStateResidencyTicks::ON 738846964000                       # Cumulative time (in ticks) in various power states (Tick)
system.realview.uart1.power_state.pwrStateResidencyTicks::CLK_GATED 738846964000                       # Cumulative time (in ticks) in various power states (Tick)
system.realview.uart1.power_state.pwrStateResidencyTicks::SRAM_RETENTION 738846964000                       # Cumulative time (in ticks) in various power states (Tick)
system.realview.uart1.power_state.pwrStateResidencyTicks::OFF 738846964000                       # Cumulative time (in ticks) in various power states (Tick)
system.realview.uart2.power_state.pwrStateResidencyTicks::UNDEFINED 738846964000                       # Cumulative time (in ticks) in various power states (Tick)
system.realview.uart2.power_state.pwrStateResidencyTicks::ON 738846964000                       # Cumulative time (in ticks) in various power states (Tick)
system.realview.uart2.power_state.pwrStateResidencyTicks::CLK_GATED 738846964000                       # Cumulative time (in ticks) in various power states (Tick)
system.realview.uart2.power_state.pwrStateResidencyTicks::SRAM_RETENTION 738846964000                       # Cumulative time (in ticks) in various power states (Tick)
system.realview.uart2.power_state.pwrStateResidencyTicks::OFF 738846964000                       # Cumulative time (in ticks) in various power states (Tick)
system.realview.uart3.power_state.pwrStateResidencyTicks::UNDEFINED 738846964000                       # Cumulative time (in ticks) in various power states (Tick)
system.realview.uart3.power_state.pwrStateResidencyTicks::ON 738846964000                       # Cumulative time (in ticks) in various power states (Tick)
system.realview.uart3.power_state.pwrStateResidencyTicks::CLK_GATED 738846964000                       # Cumulative time (in ticks) in various power states (Tick)
system.realview.uart3.power_state.pwrStateResidencyTicks::SRAM_RETENTION 738846964000                       # Cumulative time (in ticks) in various power states (Tick)
system.realview.uart3.power_state.pwrStateResidencyTicks::OFF 738846964000                       # Cumulative time (in ticks) in various power states (Tick)
system.realview.vgic.power_state.pwrStateResidencyTicks::UNDEFINED 738846964000                       # Cumulative time (in ticks) in various power states (Tick)
system.realview.vgic.power_state.pwrStateResidencyTicks::ON 738846964000                       # Cumulative time (in ticks) in various power states (Tick)
system.realview.vgic.power_state.pwrStateResidencyTicks::CLK_GATED 738846964000                       # Cumulative time (in ticks) in various power states (Tick)
system.realview.vgic.power_state.pwrStateResidencyTicks::SRAM_RETENTION 738846964000                       # Cumulative time (in ticks) in various power states (Tick)
system.realview.vgic.power_state.pwrStateResidencyTicks::OFF 738846964000                       # Cumulative time (in ticks) in various power states (Tick)
system.realview.vio0.power_state.pwrStateResidencyTicks::UNDEFINED 738846964000                       # Cumulative time (in ticks) in various power states (Tick)
system.realview.vio0.power_state.pwrStateResidencyTicks::ON 738846964000                       # Cumulative time (in ticks) in various power states (Tick)
system.realview.vio0.power_state.pwrStateResidencyTicks::CLK_GATED 738846964000                       # Cumulative time (in ticks) in various power states (Tick)
system.realview.vio0.power_state.pwrStateResidencyTicks::SRAM_RETENTION 738846964000                       # Cumulative time (in ticks) in various power states (Tick)
system.realview.vio0.power_state.pwrStateResidencyTicks::OFF 738846964000                       # Cumulative time (in ticks) in various power states (Tick)
system.realview.vio1.power_state.pwrStateResidencyTicks::UNDEFINED 738846964000                       # Cumulative time (in ticks) in various power states (Tick)
system.realview.vio1.power_state.pwrStateResidencyTicks::ON 738846964000                       # Cumulative time (in ticks) in various power states (Tick)
system.realview.vio1.power_state.pwrStateResidencyTicks::CLK_GATED 738846964000                       # Cumulative time (in ticks) in various power states (Tick)
system.realview.vio1.power_state.pwrStateResidencyTicks::SRAM_RETENTION 738846964000                       # Cumulative time (in ticks) in various power states (Tick)
system.realview.vio1.power_state.pwrStateResidencyTicks::OFF 738846964000                       # Cumulative time (in ticks) in various power states (Tick)
system.realview.vram.power_state.pwrStateResidencyTicks::UNDEFINED 738846964000                       # Cumulative time (in ticks) in various power states (Tick)
system.realview.vram.power_state.pwrStateResidencyTicks::ON 738846964000                       # Cumulative time (in ticks) in various power states (Tick)
system.realview.vram.power_state.pwrStateResidencyTicks::CLK_GATED 738846964000                       # Cumulative time (in ticks) in various power states (Tick)
system.realview.vram.power_state.pwrStateResidencyTicks::SRAM_RETENTION 738846964000                       # Cumulative time (in ticks) in various power states (Tick)
system.realview.vram.power_state.pwrStateResidencyTicks::OFF 738846964000                       # Cumulative time (in ticks) in various power states (Tick)
system.realview.watchdog.power_state.pwrStateResidencyTicks::UNDEFINED 738846964000                       # Cumulative time (in ticks) in various power states (Tick)
system.realview.watchdog.power_state.pwrStateResidencyTicks::ON 738846964000                       # Cumulative time (in ticks) in various power states (Tick)
system.realview.watchdog.power_state.pwrStateResidencyTicks::CLK_GATED 738846964000                       # Cumulative time (in ticks) in various power states (Tick)
system.realview.watchdog.power_state.pwrStateResidencyTicks::SRAM_RETENTION 738846964000                       # Cumulative time (in ticks) in various power states (Tick)
system.realview.watchdog.power_state.pwrStateResidencyTicks::OFF 738846964000                       # Cumulative time (in ticks) in various power states (Tick)
system.tol2bus.transDist::InvalidCmd         39797238                       # Transaction distribution (Count)
system.tol2bus.transDist::ReadReq            39797238                       # Transaction distribution (Count)
system.tol2bus.transDist::ReadResp           39797238                       # Transaction distribution (Count)
system.tol2bus.transDist::ReadRespWithInvalidate     39797238                       # Transaction distribution (Count)
system.tol2bus.transDist::WriteReq           39797238                       # Transaction distribution (Count)
system.tol2bus.transDist::WriteResp          39797238                       # Transaction distribution (Count)
system.tol2bus.transDist::WriteCompleteResp     39797238                       # Transaction distribution (Count)
system.tol2bus.transDist::WritebackDirty     39797238                       # Transaction distribution (Count)
system.tol2bus.transDist::WritebackClean     39797238                       # Transaction distribution (Count)
system.tol2bus.transDist::WriteClean         39797238                       # Transaction distribution (Count)
system.tol2bus.transDist::CleanEvict         39797238                       # Transaction distribution (Count)
system.tol2bus.transDist::SoftPFReq          39797238                       # Transaction distribution (Count)
system.tol2bus.transDist::SoftPFExReq        39797238                       # Transaction distribution (Count)
system.tol2bus.transDist::HardPFReq          39797238                       # Transaction distribution (Count)
system.tol2bus.transDist::SoftPFResp         39797238                       # Transaction distribution (Count)
system.tol2bus.transDist::HardPFResp         39797238                       # Transaction distribution (Count)
system.tol2bus.transDist::WriteLineReq       39797238                       # Transaction distribution (Count)
system.tol2bus.transDist::UpgradeReq         39797238                       # Transaction distribution (Count)
system.tol2bus.transDist::SCUpgradeReq       39797238                       # Transaction distribution (Count)
system.tol2bus.transDist::UpgradeResp        39797238                       # Transaction distribution (Count)
system.tol2bus.transDist::SCUpgradeFailReq     39797238                       # Transaction distribution (Count)
system.tol2bus.transDist::UpgradeFailResp     39797238                       # Transaction distribution (Count)
system.tol2bus.transDist::ReadExReq          39797238                       # Transaction distribution (Count)
system.tol2bus.transDist::ReadExResp         39797238                       # Transaction distribution (Count)
system.tol2bus.transDist::ReadCleanReq       39797238                       # Transaction distribution (Count)
system.tol2bus.transDist::ReadSharedReq      39797238                       # Transaction distribution (Count)
system.tol2bus.transDist::LoadLockedReq      39797238                       # Transaction distribution (Count)
system.tol2bus.transDist::StoreCondReq       39797238                       # Transaction distribution (Count)
system.tol2bus.transDist::StoreCondFailReq     39797238                       # Transaction distribution (Count)
system.tol2bus.transDist::StoreCondResp      39797238                       # Transaction distribution (Count)
system.tol2bus.transDist::SwapReq            39797238                       # Transaction distribution (Count)
system.tol2bus.transDist::SwapResp           39797238                       # Transaction distribution (Count)
system.tol2bus.transDist::Deprecated_MessageReq     39797238                       # Transaction distribution (Count)
system.tol2bus.transDist::Deprecated_MessageResp     39797238                       # Transaction distribution (Count)
system.tol2bus.transDist::MemFenceReq        39797238                       # Transaction distribution (Count)
system.tol2bus.transDist::MemSyncReq         39797238                       # Transaction distribution (Count)
system.tol2bus.transDist::MemSyncResp        39797238                       # Transaction distribution (Count)
system.tol2bus.transDist::MemFenceResp       39797238                       # Transaction distribution (Count)
system.tol2bus.transDist::CleanSharedReq     39797238                       # Transaction distribution (Count)
system.tol2bus.transDist::CleanSharedResp     39797238                       # Transaction distribution (Count)
system.tol2bus.transDist::CleanInvalidReq     39797238                       # Transaction distribution (Count)
system.tol2bus.transDist::CleanInvalidResp     39797238                       # Transaction distribution (Count)
system.tol2bus.transDist::InvalidDestError     39797238                       # Transaction distribution (Count)
system.tol2bus.transDist::BadAddressError     39797238                       # Transaction distribution (Count)
system.tol2bus.transDist::FunctionalReadError     39797238                       # Transaction distribution (Count)
system.tol2bus.transDist::FunctionalWriteError     39797238                       # Transaction distribution (Count)
system.tol2bus.transDist::PrintReq           39797238                       # Transaction distribution (Count)
system.tol2bus.transDist::FlushReq           39797238                       # Transaction distribution (Count)
system.tol2bus.transDist::InvalidateReq      39797238                       # Transaction distribution (Count)
system.tol2bus.transDist::InvalidateResp     39797238                       # Transaction distribution (Count)
system.tol2bus.transDist::HTMReq             39797238                       # Transaction distribution (Count)
system.tol2bus.transDist::HTMReqResp         39797238                       # Transaction distribution (Count)
system.tol2bus.transDist::HTMAbort           39797238                       # Transaction distribution (Count)
system.tol2bus.pktCount_system.cpu.icache.mem_side_port::system.l2.cpu_side_port     39797238                       # Packet count per connected requestor and responder (Count)
system.tol2bus.pktCount_system.cpu.dcache.mem_side_port::system.l2.cpu_side_port     39797238                       # Packet count per connected requestor and responder (Count)
system.tol2bus.pktCount_system.cpu.mmu.itb_walker.port::system.l2.cpu_side_port     39797238                       # Packet count per connected requestor and responder (Count)
system.tol2bus.pktCount_system.cpu.mmu.dtb_walker.port::system.l2.cpu_side_port     39797238                       # Packet count per connected requestor and responder (Count)
system.tol2bus.pktCount::total              159188952                       # Packet count per connected requestor and responder (Count)
system.tol2bus.pktSize_system.cpu.icache.mem_side_port::system.l2.cpu_side_port    782425244                       # Cumulative packet size per connected requestor and responder (Byte)
system.tol2bus.pktSize_system.cpu.dcache.mem_side_port::system.l2.cpu_side_port    782425244                       # Cumulative packet size per connected requestor and responder (Byte)
system.tol2bus.pktSize_system.cpu.mmu.itb_walker.port::system.l2.cpu_side_port    782425244                       # Cumulative packet size per connected requestor and responder (Byte)
system.tol2bus.pktSize_system.cpu.mmu.dtb_walker.port::system.l2.cpu_side_port    782425244                       # Cumulative packet size per connected requestor and responder (Byte)
system.tol2bus.pktSize::total              3129700976                       # Cumulative packet size per connected requestor and responder (Byte)
system.tol2bus.snoops                               0                       # Total snoops (Count)
system.tol2bus.snoopTraffic                         0                       # Total snoop traffic (Byte)
system.tol2bus.snoopFanout::samples          19898625                       # Request fanout histogram
system.tol2bus.snoopFanout::mean                    0                       # Request fanout histogram
system.tol2bus.snoopFanout::stdev                   0                       # Request fanout histogram
system.tol2bus.snoopFanout::underflows              0      0.00%      0.00% # Request fanout histogram
system.tol2bus.snoopFanout::0                19898625    100.00%    100.00% # Request fanout histogram
system.tol2bus.snoopFanout::1                       0      0.00%    100.00% # Request fanout histogram
system.tol2bus.snoopFanout::2                       0      0.00%    100.00% # Request fanout histogram
system.tol2bus.snoopFanout::overflows               0      0.00%    100.00% # Request fanout histogram
system.tol2bus.snoopFanout::min_value               0                       # Request fanout histogram
system.tol2bus.snoopFanout::max_value               0                       # Request fanout histogram
system.tol2bus.snoopFanout::total            19898625                       # Request fanout histogram
system.tol2bus.power_state.pwrStateResidencyTicks::UNDEFINED 738846964000                       # Cumulative time (in ticks) in various power states (Tick)
system.tol2bus.power_state.pwrStateResidencyTicks::ON 738846964000                       # Cumulative time (in ticks) in various power states (Tick)
system.tol2bus.power_state.pwrStateResidencyTicks::CLK_GATED 738846964000                       # Cumulative time (in ticks) in various power states (Tick)
system.tol2bus.power_state.pwrStateResidencyTicks::SRAM_RETENTION 738846964000                       # Cumulative time (in ticks) in various power states (Tick)
system.tol2bus.power_state.pwrStateResidencyTicks::OFF 738846964000                       # Cumulative time (in ticks) in various power states (Tick)
system.tol2bus.reqLayer0.occupancy        12256529494                       # Layer occupancy (ticks) (Tick)
system.tol2bus.reqLayer0.utilization              0.0                       # Layer utilization (Ratio)
system.tol2bus.respLayer0.occupancy       17266410000                       # Layer occupancy (ticks) (Tick)
system.tol2bus.respLayer0.utilization             0.0                       # Layer utilization (Ratio)
system.tol2bus.respLayer1.occupancy        6080465000                       # Layer occupancy (ticks) (Tick)
system.tol2bus.respLayer1.utilization             0.0                       # Layer utilization (Ratio)
system.tol2bus.snoop_filter.totRequests             0                       # Total number of requests made to the snoop filter. (Count)
system.tol2bus.snoop_filter.hitSingleRequests            0                       # Number of requests hitting in the snoop filter with a single holder of the requested data. (Count)
system.tol2bus.snoop_filter.hitMultiRequests            0                       # Number of requests hitting in the snoop filter with multiple (>1) holders of the requested data. (Count)
system.tol2bus.snoop_filter.totSnoops               0                       # Total number of snoops made to the snoop filter. (Count)
system.tol2bus.snoop_filter.hitSingleSnoops            0                       # Number of snoops hitting in the snoop filter with a single holder of the requested data. (Count)
system.tol2bus.snoop_filter.hitMultiSnoops            0                       # Number of snoops hitting in the snoop filter with multiple (>1) holders of the requested data. (Count)
system.voltage_domain.voltage                       1                       # Voltage in Volts (Volt)
system.workload.inst.arm                            0                       # number of arm instructions executed (Count)
system.workload.inst.quiesce                        0                       # number of quiesce instructions executed (Count)

---------- End Simulation Statistics   ----------
