
---------- Begin Simulation Statistics ----------
simSeconds                                   0.135791                       # Number of seconds simulated (Second)
simTicks                                 135791192000                       # Number of ticks simulated (Tick)
finalTick                                135794734000                       # Number of ticks from beginning of simulation (restored from checkpoints and never reset) (Tick)
simFreq                                  1000000000000                       # The number of ticks per simulated second ((Tick/Second))
hostSeconds                                    743.67                       # Real time elapsed on the host (Second)
hostTickRate                                182597044                       # The number of ticks simulated per host second (ticks/s) ((Tick/Second))
hostMemory                                    4658648                       # Number of bytes of host memory used (Byte)
simInsts                                      1924019                       # Number of instructions simulated (Count)
simOps                                        1948914                       # Number of ops (including micro ops) simulated (Count)
hostInstRate                                     2587                       # Simulator instruction rate (inst/s) ((Count/Second))
hostOpRate                                       2621                       # Simulator op (including micro ops) rate (op/s) ((Count/Second))
system.bridge.power_state.pwrStateResidencyTicks::UNDEFINED 135794734000                       # Cumulative time (in ticks) in various power states (Tick)
system.bridge.power_state.pwrStateResidencyTicks::ON 135794734000                       # Cumulative time (in ticks) in various power states (Tick)
system.bridge.power_state.pwrStateResidencyTicks::CLK_GATED 135794734000                       # Cumulative time (in ticks) in various power states (Tick)
system.bridge.power_state.pwrStateResidencyTicks::SRAM_RETENTION 135794734000                       # Cumulative time (in ticks) in various power states (Tick)
system.bridge.power_state.pwrStateResidencyTicks::OFF 135794734000                       # Cumulative time (in ticks) in various power states (Tick)
system.clk_domain.clock                          1000                       # Clock period in ticks (Tick)
system.cpu.numCycles                        271582384                       # Number of cpu cycles simulated (Cycle)
system.cpu.numWorkItemsStarted                      0                       # Number of work items this cpu started (Count)
system.cpu.numWorkItemsCompleted                    0                       # Number of work items this cpu completed (Count)
system.cpu.dcache.blockedCycles::no_mshrs            0                       # number of cycles access was blocked (Cycle)
system.cpu.dcache.blockedCycles::no_targets            0                       # number of cycles access was blocked (Cycle)
system.cpu.dcache.blockedCauses::no_mshrs            0                       # number of times access was blocked (Count)
system.cpu.dcache.blockedCauses::no_targets            0                       # number of times access was blocked (Count)
system.cpu.dcache.avgBlocked::no_mshrs            nan                       # average number of cycles each access was blocked ((Cycle/Count))
system.cpu.dcache.avgBlocked::no_targets          nan                       # average number of cycles each access was blocked ((Cycle/Count))
system.cpu.dcache.overallMshrUncacheable::writebacks       174436                       # number of overall MSHR uncacheable misses (Count)
system.cpu.dcache.overallMshrUncacheable::functional       174436                       # number of overall MSHR uncacheable misses (Count)
system.cpu.dcache.overallMshrUncacheable::interrupt       174436                       # number of overall MSHR uncacheable misses (Count)
system.cpu.dcache.overallMshrUncacheable::cpu.mmu.dtb_walker       174436                       # number of overall MSHR uncacheable misses (Count)
system.cpu.dcache.overallMshrUncacheable::cpu.mmu.itb_walker       174436                       # number of overall MSHR uncacheable misses (Count)
system.cpu.dcache.overallMshrUncacheable::cpu.mmu.stage2_dtb_walker       174436                       # number of overall MSHR uncacheable misses (Count)
system.cpu.dcache.overallMshrUncacheable::cpu.mmu.stage2_itb_walker       174436                       # number of overall MSHR uncacheable misses (Count)
system.cpu.dcache.overallMshrUncacheable::cpu.inst       174436                       # number of overall MSHR uncacheable misses (Count)
system.cpu.dcache.overallMshrUncacheable::cpu.data       174436                       # number of overall MSHR uncacheable misses (Count)
system.cpu.dcache.overallMshrUncacheable::pci_ide       174436                       # number of overall MSHR uncacheable misses (Count)
system.cpu.dcache.overallMshrUncacheable::qkv_clstr.dma       174436                       # number of overall MSHR uncacheable misses (Count)
system.cpu.dcache.overallMshrUncacheable::qkv_clstr.qkv.system.qkv_clstr.qkv       174436                       # number of overall MSHR uncacheable misses (Count)
system.cpu.dcache.overallMshrUncacheable::qkv_clstr.top.system.qkv_clstr.top       174436                       # number of overall MSHR uncacheable misses (Count)
system.cpu.dcache.overallMshrUncacheable::total      2267668                       # number of overall MSHR uncacheable misses (Count)
system.cpu.dcache.overallMshrUncacheableLatency::writebacks   7771872500                       # number of overall MSHR uncacheable ticks (Tick)
system.cpu.dcache.overallMshrUncacheableLatency::functional   7771872500                       # number of overall MSHR uncacheable ticks (Tick)
system.cpu.dcache.overallMshrUncacheableLatency::interrupt   7771872500                       # number of overall MSHR uncacheable ticks (Tick)
system.cpu.dcache.overallMshrUncacheableLatency::cpu.mmu.dtb_walker   7771872500                       # number of overall MSHR uncacheable ticks (Tick)
system.cpu.dcache.overallMshrUncacheableLatency::cpu.mmu.itb_walker   7771872500                       # number of overall MSHR uncacheable ticks (Tick)
system.cpu.dcache.overallMshrUncacheableLatency::cpu.mmu.stage2_dtb_walker   7771872500                       # number of overall MSHR uncacheable ticks (Tick)
system.cpu.dcache.overallMshrUncacheableLatency::cpu.mmu.stage2_itb_walker   7771872500                       # number of overall MSHR uncacheable ticks (Tick)
system.cpu.dcache.overallMshrUncacheableLatency::cpu.inst   7771872500                       # number of overall MSHR uncacheable ticks (Tick)
system.cpu.dcache.overallMshrUncacheableLatency::cpu.data   7771872500                       # number of overall MSHR uncacheable ticks (Tick)
system.cpu.dcache.overallMshrUncacheableLatency::pci_ide   7771872500                       # number of overall MSHR uncacheable ticks (Tick)
system.cpu.dcache.overallMshrUncacheableLatency::qkv_clstr.dma   7771872500                       # number of overall MSHR uncacheable ticks (Tick)
system.cpu.dcache.overallMshrUncacheableLatency::qkv_clstr.qkv.system.qkv_clstr.qkv   7771872500                       # number of overall MSHR uncacheable ticks (Tick)
system.cpu.dcache.overallMshrUncacheableLatency::qkv_clstr.top.system.qkv_clstr.top   7771872500                       # number of overall MSHR uncacheable ticks (Tick)
system.cpu.dcache.overallMshrUncacheableLatency::total 101034342500                       # number of overall MSHR uncacheable ticks (Tick)
system.cpu.dcache.overallAvgMshrUncacheableLatency::writebacks 44554.292119                       # average overall mshr uncacheable latency ((Cycle/Count))
system.cpu.dcache.overallAvgMshrUncacheableLatency::functional 44554.292119                       # average overall mshr uncacheable latency ((Cycle/Count))
system.cpu.dcache.overallAvgMshrUncacheableLatency::interrupt 44554.292119                       # average overall mshr uncacheable latency ((Cycle/Count))
system.cpu.dcache.overallAvgMshrUncacheableLatency::cpu.mmu.dtb_walker 44554.292119                       # average overall mshr uncacheable latency ((Cycle/Count))
system.cpu.dcache.overallAvgMshrUncacheableLatency::cpu.mmu.itb_walker 44554.292119                       # average overall mshr uncacheable latency ((Cycle/Count))
system.cpu.dcache.overallAvgMshrUncacheableLatency::cpu.mmu.stage2_dtb_walker 44554.292119                       # average overall mshr uncacheable latency ((Cycle/Count))
system.cpu.dcache.overallAvgMshrUncacheableLatency::cpu.mmu.stage2_itb_walker 44554.292119                       # average overall mshr uncacheable latency ((Cycle/Count))
system.cpu.dcache.overallAvgMshrUncacheableLatency::cpu.inst 44554.292119                       # average overall mshr uncacheable latency ((Cycle/Count))
system.cpu.dcache.overallAvgMshrUncacheableLatency::cpu.data 44554.292119                       # average overall mshr uncacheable latency ((Cycle/Count))
system.cpu.dcache.overallAvgMshrUncacheableLatency::pci_ide 44554.292119                       # average overall mshr uncacheable latency ((Cycle/Count))
system.cpu.dcache.overallAvgMshrUncacheableLatency::qkv_clstr.dma 44554.292119                       # average overall mshr uncacheable latency ((Cycle/Count))
system.cpu.dcache.overallAvgMshrUncacheableLatency::qkv_clstr.qkv.system.qkv_clstr.qkv 44554.292119                       # average overall mshr uncacheable latency ((Cycle/Count))
system.cpu.dcache.overallAvgMshrUncacheableLatency::qkv_clstr.top.system.qkv_clstr.top 44554.292119                       # average overall mshr uncacheable latency ((Cycle/Count))
system.cpu.dcache.overallAvgMshrUncacheableLatency::total 44554.292119                       # average overall mshr uncacheable latency ((Cycle/Count))
system.cpu.dcache.replacements                      0                       # number of replacements (Count)
system.cpu.dcache.ReadReq.mshrUncacheable::writebacks       111175                       # number of ReadReq MSHR uncacheable (Count)
system.cpu.dcache.ReadReq.mshrUncacheable::functional       111175                       # number of ReadReq MSHR uncacheable (Count)
system.cpu.dcache.ReadReq.mshrUncacheable::interrupt       111175                       # number of ReadReq MSHR uncacheable (Count)
system.cpu.dcache.ReadReq.mshrUncacheable::cpu.mmu.dtb_walker       111175                       # number of ReadReq MSHR uncacheable (Count)
system.cpu.dcache.ReadReq.mshrUncacheable::cpu.mmu.itb_walker       111175                       # number of ReadReq MSHR uncacheable (Count)
system.cpu.dcache.ReadReq.mshrUncacheable::cpu.mmu.stage2_dtb_walker       111175                       # number of ReadReq MSHR uncacheable (Count)
system.cpu.dcache.ReadReq.mshrUncacheable::cpu.mmu.stage2_itb_walker       111175                       # number of ReadReq MSHR uncacheable (Count)
system.cpu.dcache.ReadReq.mshrUncacheable::cpu.inst       111175                       # number of ReadReq MSHR uncacheable (Count)
system.cpu.dcache.ReadReq.mshrUncacheable::cpu.data       111175                       # number of ReadReq MSHR uncacheable (Count)
system.cpu.dcache.ReadReq.mshrUncacheable::pci_ide       111175                       # number of ReadReq MSHR uncacheable (Count)
system.cpu.dcache.ReadReq.mshrUncacheable::qkv_clstr.dma       111175                       # number of ReadReq MSHR uncacheable (Count)
system.cpu.dcache.ReadReq.mshrUncacheable::qkv_clstr.qkv.system.qkv_clstr.qkv       111175                       # number of ReadReq MSHR uncacheable (Count)
system.cpu.dcache.ReadReq.mshrUncacheable::qkv_clstr.top.system.qkv_clstr.top       111175                       # number of ReadReq MSHR uncacheable (Count)
system.cpu.dcache.ReadReq.mshrUncacheable::total      1445275                       # number of ReadReq MSHR uncacheable (Count)
system.cpu.dcache.ReadReq.mshrUncacheableLatency::writebacks   7771872500                       # number of ReadReq MSHR uncacheable ticks (Tick)
system.cpu.dcache.ReadReq.mshrUncacheableLatency::functional   7771872500                       # number of ReadReq MSHR uncacheable ticks (Tick)
system.cpu.dcache.ReadReq.mshrUncacheableLatency::interrupt   7771872500                       # number of ReadReq MSHR uncacheable ticks (Tick)
system.cpu.dcache.ReadReq.mshrUncacheableLatency::cpu.mmu.dtb_walker   7771872500                       # number of ReadReq MSHR uncacheable ticks (Tick)
system.cpu.dcache.ReadReq.mshrUncacheableLatency::cpu.mmu.itb_walker   7771872500                       # number of ReadReq MSHR uncacheable ticks (Tick)
system.cpu.dcache.ReadReq.mshrUncacheableLatency::cpu.mmu.stage2_dtb_walker   7771872500                       # number of ReadReq MSHR uncacheable ticks (Tick)
system.cpu.dcache.ReadReq.mshrUncacheableLatency::cpu.mmu.stage2_itb_walker   7771872500                       # number of ReadReq MSHR uncacheable ticks (Tick)
system.cpu.dcache.ReadReq.mshrUncacheableLatency::cpu.inst   7771872500                       # number of ReadReq MSHR uncacheable ticks (Tick)
system.cpu.dcache.ReadReq.mshrUncacheableLatency::cpu.data   7771872500                       # number of ReadReq MSHR uncacheable ticks (Tick)
system.cpu.dcache.ReadReq.mshrUncacheableLatency::pci_ide   7771872500                       # number of ReadReq MSHR uncacheable ticks (Tick)
system.cpu.dcache.ReadReq.mshrUncacheableLatency::qkv_clstr.dma   7771872500                       # number of ReadReq MSHR uncacheable ticks (Tick)
system.cpu.dcache.ReadReq.mshrUncacheableLatency::qkv_clstr.qkv.system.qkv_clstr.qkv   7771872500                       # number of ReadReq MSHR uncacheable ticks (Tick)
system.cpu.dcache.ReadReq.mshrUncacheableLatency::qkv_clstr.top.system.qkv_clstr.top   7771872500                       # number of ReadReq MSHR uncacheable ticks (Tick)
system.cpu.dcache.ReadReq.mshrUncacheableLatency::total 101034342500                       # number of ReadReq MSHR uncacheable ticks (Tick)
system.cpu.dcache.ReadReq.avgMshrUncacheableLatency::writebacks 69906.656173                       # average ReadReq mshr uncacheable latency ((Tick/Count))
system.cpu.dcache.ReadReq.avgMshrUncacheableLatency::functional 69906.656173                       # average ReadReq mshr uncacheable latency ((Tick/Count))
system.cpu.dcache.ReadReq.avgMshrUncacheableLatency::interrupt 69906.656173                       # average ReadReq mshr uncacheable latency ((Tick/Count))
system.cpu.dcache.ReadReq.avgMshrUncacheableLatency::cpu.mmu.dtb_walker 69906.656173                       # average ReadReq mshr uncacheable latency ((Tick/Count))
system.cpu.dcache.ReadReq.avgMshrUncacheableLatency::cpu.mmu.itb_walker 69906.656173                       # average ReadReq mshr uncacheable latency ((Tick/Count))
system.cpu.dcache.ReadReq.avgMshrUncacheableLatency::cpu.mmu.stage2_dtb_walker 69906.656173                       # average ReadReq mshr uncacheable latency ((Tick/Count))
system.cpu.dcache.ReadReq.avgMshrUncacheableLatency::cpu.mmu.stage2_itb_walker 69906.656173                       # average ReadReq mshr uncacheable latency ((Tick/Count))
system.cpu.dcache.ReadReq.avgMshrUncacheableLatency::cpu.inst 69906.656173                       # average ReadReq mshr uncacheable latency ((Tick/Count))
system.cpu.dcache.ReadReq.avgMshrUncacheableLatency::cpu.data 69906.656173                       # average ReadReq mshr uncacheable latency ((Tick/Count))
system.cpu.dcache.ReadReq.avgMshrUncacheableLatency::pci_ide 69906.656173                       # average ReadReq mshr uncacheable latency ((Tick/Count))
system.cpu.dcache.ReadReq.avgMshrUncacheableLatency::qkv_clstr.dma 69906.656173                       # average ReadReq mshr uncacheable latency ((Tick/Count))
system.cpu.dcache.ReadReq.avgMshrUncacheableLatency::qkv_clstr.qkv.system.qkv_clstr.qkv 69906.656173                       # average ReadReq mshr uncacheable latency ((Tick/Count))
system.cpu.dcache.ReadReq.avgMshrUncacheableLatency::qkv_clstr.top.system.qkv_clstr.top 69906.656173                       # average ReadReq mshr uncacheable latency ((Tick/Count))
system.cpu.dcache.ReadReq.avgMshrUncacheableLatency::total 69906.656173                       # average ReadReq mshr uncacheable latency ((Tick/Count))
system.cpu.dcache.WriteReq.mshrUncacheable::writebacks        63261                       # number of WriteReq MSHR uncacheable (Count)
system.cpu.dcache.WriteReq.mshrUncacheable::functional        63261                       # number of WriteReq MSHR uncacheable (Count)
system.cpu.dcache.WriteReq.mshrUncacheable::interrupt        63261                       # number of WriteReq MSHR uncacheable (Count)
system.cpu.dcache.WriteReq.mshrUncacheable::cpu.mmu.dtb_walker        63261                       # number of WriteReq MSHR uncacheable (Count)
system.cpu.dcache.WriteReq.mshrUncacheable::cpu.mmu.itb_walker        63261                       # number of WriteReq MSHR uncacheable (Count)
system.cpu.dcache.WriteReq.mshrUncacheable::cpu.mmu.stage2_dtb_walker        63261                       # number of WriteReq MSHR uncacheable (Count)
system.cpu.dcache.WriteReq.mshrUncacheable::cpu.mmu.stage2_itb_walker        63261                       # number of WriteReq MSHR uncacheable (Count)
system.cpu.dcache.WriteReq.mshrUncacheable::cpu.inst        63261                       # number of WriteReq MSHR uncacheable (Count)
system.cpu.dcache.WriteReq.mshrUncacheable::cpu.data        63261                       # number of WriteReq MSHR uncacheable (Count)
system.cpu.dcache.WriteReq.mshrUncacheable::pci_ide        63261                       # number of WriteReq MSHR uncacheable (Count)
system.cpu.dcache.WriteReq.mshrUncacheable::qkv_clstr.dma        63261                       # number of WriteReq MSHR uncacheable (Count)
system.cpu.dcache.WriteReq.mshrUncacheable::qkv_clstr.qkv.system.qkv_clstr.qkv        63261                       # number of WriteReq MSHR uncacheable (Count)
system.cpu.dcache.WriteReq.mshrUncacheable::qkv_clstr.top.system.qkv_clstr.top        63261                       # number of WriteReq MSHR uncacheable (Count)
system.cpu.dcache.WriteReq.mshrUncacheable::total       822393                       # number of WriteReq MSHR uncacheable (Count)
system.cpu.dcache.power_state.pwrStateResidencyTicks::UNDEFINED 135794734000                       # Cumulative time (in ticks) in various power states (Tick)
system.cpu.dcache.power_state.pwrStateResidencyTicks::ON 135794734000                       # Cumulative time (in ticks) in various power states (Tick)
system.cpu.dcache.power_state.pwrStateResidencyTicks::CLK_GATED 135794734000                       # Cumulative time (in ticks) in various power states (Tick)
system.cpu.dcache.power_state.pwrStateResidencyTicks::SRAM_RETENTION 135794734000                       # Cumulative time (in ticks) in various power states (Tick)
system.cpu.dcache.power_state.pwrStateResidencyTicks::OFF 135794734000                       # Cumulative time (in ticks) in various power states (Tick)
system.cpu.dcache.tags.tagsInUse                    0                       # Average ticks per tags in use ((Tick/Count))
system.cpu.dcache.tags.totalRefs                    0                       # Total number of references to valid blocks. (Count)
system.cpu.dcache.tags.sampledRefs                  0                       # Sample count of references to valid blocks. (Count)
system.cpu.dcache.tags.avgRefs                    nan                       # Average number of references to valid blocks. ((Count/Count))
system.cpu.dcache.tags.warmupTick                   0                       # The tick when the warmup percentage was hit. (Tick)
system.cpu.dcache.tags.tagAccesses                  0                       # Number of tag accesses (Count)
system.cpu.dcache.tags.dataAccesses                 0                       # Number of data accesses (Count)
system.cpu.dcache.tags.power_state.pwrStateResidencyTicks::UNDEFINED 135794734000                       # Cumulative time (in ticks) in various power states (Tick)
system.cpu.dcache.tags.power_state.pwrStateResidencyTicks::ON 135794734000                       # Cumulative time (in ticks) in various power states (Tick)
system.cpu.dcache.tags.power_state.pwrStateResidencyTicks::CLK_GATED 135794734000                       # Cumulative time (in ticks) in various power states (Tick)
system.cpu.dcache.tags.power_state.pwrStateResidencyTicks::SRAM_RETENTION 135794734000                       # Cumulative time (in ticks) in various power states (Tick)
system.cpu.dcache.tags.power_state.pwrStateResidencyTicks::OFF 135794734000                       # Cumulative time (in ticks) in various power states (Tick)
system.cpu.exec_context.thread_0.numInsts      1923979                       # Number of instructions committed (Count)
system.cpu.exec_context.thread_0.numOps       1948866                       # Number of ops (including micro ops) committed (Count)
system.cpu.exec_context.thread_0.numIntAluAccesses      1753437                       # Number of integer alu accesses (Count)
system.cpu.exec_context.thread_0.numFpAluAccesses            0                       # Number of float alu accesses (Count)
system.cpu.exec_context.thread_0.numVecAluAccesses            0                       # Number of vector alu accesses (Count)
system.cpu.exec_context.thread_0.numCallsReturns       122979                       # Number of times a function call or return occured (Count)
system.cpu.exec_context.thread_0.numCondCtrlInsts       185860                       # Number of instructions that are conditional controls (Count)
system.cpu.exec_context.thread_0.numIntInsts      1753437                       # Number of integer instructions (Count)
system.cpu.exec_context.thread_0.numFpInsts            0                       # Number of float instructions (Count)
system.cpu.exec_context.thread_0.numVecInsts            0                       # Number of vector instructions (Count)
system.cpu.exec_context.thread_0.numIntRegReads      2199821                       # Number of times the integer registers were read (Count)
system.cpu.exec_context.thread_0.numIntRegWrites      1108512                       # Number of times the integer registers were written (Count)
system.cpu.exec_context.thread_0.numFpRegReads            0                       # Number of times the floating registers were read (Count)
system.cpu.exec_context.thread_0.numFpRegWrites            0                       # Number of times the floating registers were written (Count)
system.cpu.exec_context.thread_0.numVecRegReads            0                       # Number of times the vector registers were read (Count)
system.cpu.exec_context.thread_0.numVecRegWrites            0                       # Number of times the vector registers were written (Count)
system.cpu.exec_context.thread_0.numVecPredRegReads            0                       # Number of times the predicate registers were read (Count)
system.cpu.exec_context.thread_0.numVecPredRegWrites            0                       # Number of times the predicate registers were written (Count)
system.cpu.exec_context.thread_0.numCCRegReads      6180144                       # Number of times the CC registers were read (Count)
system.cpu.exec_context.thread_0.numCCRegWrites      1347518                       # Number of times the CC registers were written (Count)
system.cpu.exec_context.thread_0.numMemRefs       174443                       # Number of memory refs (Count)
system.cpu.exec_context.thread_0.numLoadInsts       111176                       # Number of load instructions (Count)
system.cpu.exec_context.thread_0.numStoreInsts        63267                       # Number of store instructions (Count)
system.cpu.exec_context.thread_0.numIdleCycles            0                       # Number of idle cycles (Cycle)
system.cpu.exec_context.thread_0.numBusyCycles    271582384                       # Number of busy cycles (Cycle)
system.cpu.exec_context.thread_0.notIdleFraction            1                       # Percentage of non-idle cycles (Ratio)
system.cpu.exec_context.thread_0.idleFraction            0                       # Percentage of idle cycles (Ratio)
system.cpu.exec_context.thread_0.numBranches       318431                       # Number of branches fetched (Count)
system.cpu.exec_context.thread_0.statExecutedInstType::No_OpClass      1948880      1.89%      1.89% # Class of executed instruction. (Count)
system.cpu.exec_context.thread_0.statExecutedInstType::IntAlu      1948880      1.89%      3.77% # Class of executed instruction. (Count)
system.cpu.exec_context.thread_0.statExecutedInstType::IntMult      1948880      1.89%      5.66% # Class of executed instruction. (Count)
system.cpu.exec_context.thread_0.statExecutedInstType::IntDiv      1948880      1.89%      7.55% # Class of executed instruction. (Count)
system.cpu.exec_context.thread_0.statExecutedInstType::FloatAdd      1948880      1.89%      9.43% # Class of executed instruction. (Count)
system.cpu.exec_context.thread_0.statExecutedInstType::FloatCmp      1948880      1.89%     11.32% # Class of executed instruction. (Count)
system.cpu.exec_context.thread_0.statExecutedInstType::FloatCvt      1948880      1.89%     13.21% # Class of executed instruction. (Count)
system.cpu.exec_context.thread_0.statExecutedInstType::FloatMult      1948880      1.89%     15.09% # Class of executed instruction. (Count)
system.cpu.exec_context.thread_0.statExecutedInstType::FloatMultAcc      1948880      1.89%     16.98% # Class of executed instruction. (Count)
system.cpu.exec_context.thread_0.statExecutedInstType::FloatDiv      1948880      1.89%     18.87% # Class of executed instruction. (Count)
system.cpu.exec_context.thread_0.statExecutedInstType::FloatMisc      1948880      1.89%     20.75% # Class of executed instruction. (Count)
system.cpu.exec_context.thread_0.statExecutedInstType::FloatSqrt      1948880      1.89%     22.64% # Class of executed instruction. (Count)
system.cpu.exec_context.thread_0.statExecutedInstType::SimdAdd      1948880      1.89%     24.53% # Class of executed instruction. (Count)
system.cpu.exec_context.thread_0.statExecutedInstType::SimdAddAcc      1948880      1.89%     26.42% # Class of executed instruction. (Count)
system.cpu.exec_context.thread_0.statExecutedInstType::SimdAlu      1948880      1.89%     28.30% # Class of executed instruction. (Count)
system.cpu.exec_context.thread_0.statExecutedInstType::SimdCmp      1948880      1.89%     30.19% # Class of executed instruction. (Count)
system.cpu.exec_context.thread_0.statExecutedInstType::SimdCvt      1948880      1.89%     32.08% # Class of executed instruction. (Count)
system.cpu.exec_context.thread_0.statExecutedInstType::SimdMisc      1948880      1.89%     33.96% # Class of executed instruction. (Count)
system.cpu.exec_context.thread_0.statExecutedInstType::SimdMult      1948880      1.89%     35.85% # Class of executed instruction. (Count)
system.cpu.exec_context.thread_0.statExecutedInstType::SimdMultAcc      1948880      1.89%     37.74% # Class of executed instruction. (Count)
system.cpu.exec_context.thread_0.statExecutedInstType::SimdShift      1948880      1.89%     39.62% # Class of executed instruction. (Count)
system.cpu.exec_context.thread_0.statExecutedInstType::SimdShiftAcc      1948880      1.89%     41.51% # Class of executed instruction. (Count)
system.cpu.exec_context.thread_0.statExecutedInstType::SimdDiv      1948880      1.89%     43.40% # Class of executed instruction. (Count)
system.cpu.exec_context.thread_0.statExecutedInstType::SimdSqrt      1948880      1.89%     45.28% # Class of executed instruction. (Count)
system.cpu.exec_context.thread_0.statExecutedInstType::SimdFloatAdd      1948880      1.89%     47.17% # Class of executed instruction. (Count)
system.cpu.exec_context.thread_0.statExecutedInstType::SimdFloatAlu      1948880      1.89%     49.06% # Class of executed instruction. (Count)
system.cpu.exec_context.thread_0.statExecutedInstType::SimdFloatCmp      1948880      1.89%     50.94% # Class of executed instruction. (Count)
system.cpu.exec_context.thread_0.statExecutedInstType::SimdFloatCvt      1948880      1.89%     52.83% # Class of executed instruction. (Count)
system.cpu.exec_context.thread_0.statExecutedInstType::SimdFloatDiv      1948880      1.89%     54.72% # Class of executed instruction. (Count)
system.cpu.exec_context.thread_0.statExecutedInstType::SimdFloatMisc      1948880      1.89%     56.60% # Class of executed instruction. (Count)
system.cpu.exec_context.thread_0.statExecutedInstType::SimdFloatMult      1948880      1.89%     58.49% # Class of executed instruction. (Count)
system.cpu.exec_context.thread_0.statExecutedInstType::SimdFloatMultAcc      1948880      1.89%     60.38% # Class of executed instruction. (Count)
system.cpu.exec_context.thread_0.statExecutedInstType::SimdFloatSqrt      1948880      1.89%     62.26% # Class of executed instruction. (Count)
system.cpu.exec_context.thread_0.statExecutedInstType::SimdReduceAdd      1948880      1.89%     64.15% # Class of executed instruction. (Count)
system.cpu.exec_context.thread_0.statExecutedInstType::SimdReduceAlu      1948880      1.89%     66.04% # Class of executed instruction. (Count)
system.cpu.exec_context.thread_0.statExecutedInstType::SimdReduceCmp      1948880      1.89%     67.92% # Class of executed instruction. (Count)
system.cpu.exec_context.thread_0.statExecutedInstType::SimdFloatReduceAdd      1948880      1.89%     69.81% # Class of executed instruction. (Count)
system.cpu.exec_context.thread_0.statExecutedInstType::SimdFloatReduceCmp      1948880      1.89%     71.70% # Class of executed instruction. (Count)
system.cpu.exec_context.thread_0.statExecutedInstType::SimdAes      1948880      1.89%     73.58% # Class of executed instruction. (Count)
system.cpu.exec_context.thread_0.statExecutedInstType::SimdAesMix      1948880      1.89%     75.47% # Class of executed instruction. (Count)
system.cpu.exec_context.thread_0.statExecutedInstType::SimdSha1Hash      1948880      1.89%     77.36% # Class of executed instruction. (Count)
system.cpu.exec_context.thread_0.statExecutedInstType::SimdSha1Hash2      1948880      1.89%     79.25% # Class of executed instruction. (Count)
system.cpu.exec_context.thread_0.statExecutedInstType::SimdSha256Hash      1948880      1.89%     81.13% # Class of executed instruction. (Count)
system.cpu.exec_context.thread_0.statExecutedInstType::SimdSha256Hash2      1948880      1.89%     83.02% # Class of executed instruction. (Count)
system.cpu.exec_context.thread_0.statExecutedInstType::SimdShaSigma2      1948880      1.89%     84.91% # Class of executed instruction. (Count)
system.cpu.exec_context.thread_0.statExecutedInstType::SimdShaSigma3      1948880      1.89%     86.79% # Class of executed instruction. (Count)
system.cpu.exec_context.thread_0.statExecutedInstType::SimdPredAlu      1948880      1.89%     88.68% # Class of executed instruction. (Count)
system.cpu.exec_context.thread_0.statExecutedInstType::MemRead      1948880      1.89%     90.57% # Class of executed instruction. (Count)
system.cpu.exec_context.thread_0.statExecutedInstType::MemWrite      1948880      1.89%     92.45% # Class of executed instruction. (Count)
system.cpu.exec_context.thread_0.statExecutedInstType::FloatMemRead      1948880      1.89%     94.34% # Class of executed instruction. (Count)
system.cpu.exec_context.thread_0.statExecutedInstType::FloatMemWrite      1948880      1.89%     96.23% # Class of executed instruction. (Count)
system.cpu.exec_context.thread_0.statExecutedInstType::IprAccess      1948880      1.89%     98.11% # Class of executed instruction. (Count)
system.cpu.exec_context.thread_0.statExecutedInstType::InstPrefetch      1948880      1.89%    100.00% # Class of executed instruction. (Count)
system.cpu.exec_context.thread_0.statExecutedInstType::total    103290640                       # Class of executed instruction. (Count)
system.cpu.icache.blockedCycles::no_mshrs            0                       # number of cycles access was blocked (Cycle)
system.cpu.icache.blockedCycles::no_targets            0                       # number of cycles access was blocked (Cycle)
system.cpu.icache.blockedCauses::no_mshrs            0                       # number of times access was blocked (Count)
system.cpu.icache.blockedCauses::no_targets            0                       # number of times access was blocked (Count)
system.cpu.icache.avgBlocked::no_mshrs            nan                       # average number of cycles each access was blocked ((Cycle/Count))
system.cpu.icache.avgBlocked::no_targets          nan                       # average number of cycles each access was blocked ((Cycle/Count))
system.cpu.icache.overallMshrUncacheable::writebacks      1923989                       # number of overall MSHR uncacheable misses (Count)
system.cpu.icache.overallMshrUncacheable::functional      1923989                       # number of overall MSHR uncacheable misses (Count)
system.cpu.icache.overallMshrUncacheable::interrupt      1923989                       # number of overall MSHR uncacheable misses (Count)
system.cpu.icache.overallMshrUncacheable::cpu.mmu.dtb_walker      1923989                       # number of overall MSHR uncacheable misses (Count)
system.cpu.icache.overallMshrUncacheable::cpu.mmu.itb_walker      1923989                       # number of overall MSHR uncacheable misses (Count)
system.cpu.icache.overallMshrUncacheable::cpu.mmu.stage2_dtb_walker      1923989                       # number of overall MSHR uncacheable misses (Count)
system.cpu.icache.overallMshrUncacheable::cpu.mmu.stage2_itb_walker      1923989                       # number of overall MSHR uncacheable misses (Count)
system.cpu.icache.overallMshrUncacheable::cpu.inst      1923989                       # number of overall MSHR uncacheable misses (Count)
system.cpu.icache.overallMshrUncacheable::cpu.data      1923989                       # number of overall MSHR uncacheable misses (Count)
system.cpu.icache.overallMshrUncacheable::pci_ide      1923989                       # number of overall MSHR uncacheable misses (Count)
system.cpu.icache.overallMshrUncacheable::qkv_clstr.dma      1923989                       # number of overall MSHR uncacheable misses (Count)
system.cpu.icache.overallMshrUncacheable::qkv_clstr.qkv.system.qkv_clstr.qkv      1923989                       # number of overall MSHR uncacheable misses (Count)
system.cpu.icache.overallMshrUncacheable::qkv_clstr.top.system.qkv_clstr.top      1923989                       # number of overall MSHR uncacheable misses (Count)
system.cpu.icache.overallMshrUncacheable::total     25011857                       # number of overall MSHR uncacheable misses (Count)
system.cpu.icache.overallMshrUncacheableLatency::writebacks 122147885000                       # number of overall MSHR uncacheable ticks (Tick)
system.cpu.icache.overallMshrUncacheableLatency::functional 122147885000                       # number of overall MSHR uncacheable ticks (Tick)
system.cpu.icache.overallMshrUncacheableLatency::interrupt 122147885000                       # number of overall MSHR uncacheable ticks (Tick)
system.cpu.icache.overallMshrUncacheableLatency::cpu.mmu.dtb_walker 122147885000                       # number of overall MSHR uncacheable ticks (Tick)
system.cpu.icache.overallMshrUncacheableLatency::cpu.mmu.itb_walker 122147885000                       # number of overall MSHR uncacheable ticks (Tick)
system.cpu.icache.overallMshrUncacheableLatency::cpu.mmu.stage2_dtb_walker 122147885000                       # number of overall MSHR uncacheable ticks (Tick)
system.cpu.icache.overallMshrUncacheableLatency::cpu.mmu.stage2_itb_walker 122147885000                       # number of overall MSHR uncacheable ticks (Tick)
system.cpu.icache.overallMshrUncacheableLatency::cpu.inst 122147885000                       # number of overall MSHR uncacheable ticks (Tick)
system.cpu.icache.overallMshrUncacheableLatency::cpu.data 122147885000                       # number of overall MSHR uncacheable ticks (Tick)
system.cpu.icache.overallMshrUncacheableLatency::pci_ide 122147885000                       # number of overall MSHR uncacheable ticks (Tick)
system.cpu.icache.overallMshrUncacheableLatency::qkv_clstr.dma 122147885000                       # number of overall MSHR uncacheable ticks (Tick)
system.cpu.icache.overallMshrUncacheableLatency::qkv_clstr.qkv.system.qkv_clstr.qkv 122147885000                       # number of overall MSHR uncacheable ticks (Tick)
system.cpu.icache.overallMshrUncacheableLatency::qkv_clstr.top.system.qkv_clstr.top 122147885000                       # number of overall MSHR uncacheable ticks (Tick)
system.cpu.icache.overallMshrUncacheableLatency::total 1587922505000                       # number of overall MSHR uncacheable ticks (Tick)
system.cpu.icache.overallAvgMshrUncacheableLatency::writebacks 63486.789685                       # average overall mshr uncacheable latency ((Cycle/Count))
system.cpu.icache.overallAvgMshrUncacheableLatency::functional 63486.789685                       # average overall mshr uncacheable latency ((Cycle/Count))
system.cpu.icache.overallAvgMshrUncacheableLatency::interrupt 63486.789685                       # average overall mshr uncacheable latency ((Cycle/Count))
system.cpu.icache.overallAvgMshrUncacheableLatency::cpu.mmu.dtb_walker 63486.789685                       # average overall mshr uncacheable latency ((Cycle/Count))
system.cpu.icache.overallAvgMshrUncacheableLatency::cpu.mmu.itb_walker 63486.789685                       # average overall mshr uncacheable latency ((Cycle/Count))
system.cpu.icache.overallAvgMshrUncacheableLatency::cpu.mmu.stage2_dtb_walker 63486.789685                       # average overall mshr uncacheable latency ((Cycle/Count))
system.cpu.icache.overallAvgMshrUncacheableLatency::cpu.mmu.stage2_itb_walker 63486.789685                       # average overall mshr uncacheable latency ((Cycle/Count))
system.cpu.icache.overallAvgMshrUncacheableLatency::cpu.inst 63486.789685                       # average overall mshr uncacheable latency ((Cycle/Count))
system.cpu.icache.overallAvgMshrUncacheableLatency::cpu.data 63486.789685                       # average overall mshr uncacheable latency ((Cycle/Count))
system.cpu.icache.overallAvgMshrUncacheableLatency::pci_ide 63486.789685                       # average overall mshr uncacheable latency ((Cycle/Count))
system.cpu.icache.overallAvgMshrUncacheableLatency::qkv_clstr.dma 63486.789685                       # average overall mshr uncacheable latency ((Cycle/Count))
system.cpu.icache.overallAvgMshrUncacheableLatency::qkv_clstr.qkv.system.qkv_clstr.qkv 63486.789685                       # average overall mshr uncacheable latency ((Cycle/Count))
system.cpu.icache.overallAvgMshrUncacheableLatency::qkv_clstr.top.system.qkv_clstr.top 63486.789685                       # average overall mshr uncacheable latency ((Cycle/Count))
system.cpu.icache.overallAvgMshrUncacheableLatency::total 63486.789685                       # average overall mshr uncacheable latency ((Cycle/Count))
system.cpu.icache.replacements                      0                       # number of replacements (Count)
system.cpu.icache.ReadReq.mshrUncacheable::writebacks      1923989                       # number of ReadReq MSHR uncacheable (Count)
system.cpu.icache.ReadReq.mshrUncacheable::functional      1923989                       # number of ReadReq MSHR uncacheable (Count)
system.cpu.icache.ReadReq.mshrUncacheable::interrupt      1923989                       # number of ReadReq MSHR uncacheable (Count)
system.cpu.icache.ReadReq.mshrUncacheable::cpu.mmu.dtb_walker      1923989                       # number of ReadReq MSHR uncacheable (Count)
system.cpu.icache.ReadReq.mshrUncacheable::cpu.mmu.itb_walker      1923989                       # number of ReadReq MSHR uncacheable (Count)
system.cpu.icache.ReadReq.mshrUncacheable::cpu.mmu.stage2_dtb_walker      1923989                       # number of ReadReq MSHR uncacheable (Count)
system.cpu.icache.ReadReq.mshrUncacheable::cpu.mmu.stage2_itb_walker      1923989                       # number of ReadReq MSHR uncacheable (Count)
system.cpu.icache.ReadReq.mshrUncacheable::cpu.inst      1923989                       # number of ReadReq MSHR uncacheable (Count)
system.cpu.icache.ReadReq.mshrUncacheable::cpu.data      1923989                       # number of ReadReq MSHR uncacheable (Count)
system.cpu.icache.ReadReq.mshrUncacheable::pci_ide      1923989                       # number of ReadReq MSHR uncacheable (Count)
system.cpu.icache.ReadReq.mshrUncacheable::qkv_clstr.dma      1923989                       # number of ReadReq MSHR uncacheable (Count)
system.cpu.icache.ReadReq.mshrUncacheable::qkv_clstr.qkv.system.qkv_clstr.qkv      1923989                       # number of ReadReq MSHR uncacheable (Count)
system.cpu.icache.ReadReq.mshrUncacheable::qkv_clstr.top.system.qkv_clstr.top      1923989                       # number of ReadReq MSHR uncacheable (Count)
system.cpu.icache.ReadReq.mshrUncacheable::total     25011857                       # number of ReadReq MSHR uncacheable (Count)
system.cpu.icache.ReadReq.mshrUncacheableLatency::writebacks 122147885000                       # number of ReadReq MSHR uncacheable ticks (Tick)
system.cpu.icache.ReadReq.mshrUncacheableLatency::functional 122147885000                       # number of ReadReq MSHR uncacheable ticks (Tick)
system.cpu.icache.ReadReq.mshrUncacheableLatency::interrupt 122147885000                       # number of ReadReq MSHR uncacheable ticks (Tick)
system.cpu.icache.ReadReq.mshrUncacheableLatency::cpu.mmu.dtb_walker 122147885000                       # number of ReadReq MSHR uncacheable ticks (Tick)
system.cpu.icache.ReadReq.mshrUncacheableLatency::cpu.mmu.itb_walker 122147885000                       # number of ReadReq MSHR uncacheable ticks (Tick)
system.cpu.icache.ReadReq.mshrUncacheableLatency::cpu.mmu.stage2_dtb_walker 122147885000                       # number of ReadReq MSHR uncacheable ticks (Tick)
system.cpu.icache.ReadReq.mshrUncacheableLatency::cpu.mmu.stage2_itb_walker 122147885000                       # number of ReadReq MSHR uncacheable ticks (Tick)
system.cpu.icache.ReadReq.mshrUncacheableLatency::cpu.inst 122147885000                       # number of ReadReq MSHR uncacheable ticks (Tick)
system.cpu.icache.ReadReq.mshrUncacheableLatency::cpu.data 122147885000                       # number of ReadReq MSHR uncacheable ticks (Tick)
system.cpu.icache.ReadReq.mshrUncacheableLatency::pci_ide 122147885000                       # number of ReadReq MSHR uncacheable ticks (Tick)
system.cpu.icache.ReadReq.mshrUncacheableLatency::qkv_clstr.dma 122147885000                       # number of ReadReq MSHR uncacheable ticks (Tick)
system.cpu.icache.ReadReq.mshrUncacheableLatency::qkv_clstr.qkv.system.qkv_clstr.qkv 122147885000                       # number of ReadReq MSHR uncacheable ticks (Tick)
system.cpu.icache.ReadReq.mshrUncacheableLatency::qkv_clstr.top.system.qkv_clstr.top 122147885000                       # number of ReadReq MSHR uncacheable ticks (Tick)
system.cpu.icache.ReadReq.mshrUncacheableLatency::total 1587922505000                       # number of ReadReq MSHR uncacheable ticks (Tick)
system.cpu.icache.ReadReq.avgMshrUncacheableLatency::writebacks 63486.789685                       # average ReadReq mshr uncacheable latency ((Tick/Count))
system.cpu.icache.ReadReq.avgMshrUncacheableLatency::functional 63486.789685                       # average ReadReq mshr uncacheable latency ((Tick/Count))
system.cpu.icache.ReadReq.avgMshrUncacheableLatency::interrupt 63486.789685                       # average ReadReq mshr uncacheable latency ((Tick/Count))
system.cpu.icache.ReadReq.avgMshrUncacheableLatency::cpu.mmu.dtb_walker 63486.789685                       # average ReadReq mshr uncacheable latency ((Tick/Count))
system.cpu.icache.ReadReq.avgMshrUncacheableLatency::cpu.mmu.itb_walker 63486.789685                       # average ReadReq mshr uncacheable latency ((Tick/Count))
system.cpu.icache.ReadReq.avgMshrUncacheableLatency::cpu.mmu.stage2_dtb_walker 63486.789685                       # average ReadReq mshr uncacheable latency ((Tick/Count))
system.cpu.icache.ReadReq.avgMshrUncacheableLatency::cpu.mmu.stage2_itb_walker 63486.789685                       # average ReadReq mshr uncacheable latency ((Tick/Count))
system.cpu.icache.ReadReq.avgMshrUncacheableLatency::cpu.inst 63486.789685                       # average ReadReq mshr uncacheable latency ((Tick/Count))
system.cpu.icache.ReadReq.avgMshrUncacheableLatency::cpu.data 63486.789685                       # average ReadReq mshr uncacheable latency ((Tick/Count))
system.cpu.icache.ReadReq.avgMshrUncacheableLatency::pci_ide 63486.789685                       # average ReadReq mshr uncacheable latency ((Tick/Count))
system.cpu.icache.ReadReq.avgMshrUncacheableLatency::qkv_clstr.dma 63486.789685                       # average ReadReq mshr uncacheable latency ((Tick/Count))
system.cpu.icache.ReadReq.avgMshrUncacheableLatency::qkv_clstr.qkv.system.qkv_clstr.qkv 63486.789685                       # average ReadReq mshr uncacheable latency ((Tick/Count))
system.cpu.icache.ReadReq.avgMshrUncacheableLatency::qkv_clstr.top.system.qkv_clstr.top 63486.789685                       # average ReadReq mshr uncacheable latency ((Tick/Count))
system.cpu.icache.ReadReq.avgMshrUncacheableLatency::total 63486.789685                       # average ReadReq mshr uncacheable latency ((Tick/Count))
system.cpu.icache.power_state.pwrStateResidencyTicks::UNDEFINED 135794734000                       # Cumulative time (in ticks) in various power states (Tick)
system.cpu.icache.power_state.pwrStateResidencyTicks::ON 135794734000                       # Cumulative time (in ticks) in various power states (Tick)
system.cpu.icache.power_state.pwrStateResidencyTicks::CLK_GATED 135794734000                       # Cumulative time (in ticks) in various power states (Tick)
system.cpu.icache.power_state.pwrStateResidencyTicks::SRAM_RETENTION 135794734000                       # Cumulative time (in ticks) in various power states (Tick)
system.cpu.icache.power_state.pwrStateResidencyTicks::OFF 135794734000                       # Cumulative time (in ticks) in various power states (Tick)
system.cpu.icache.tags.tagsInUse                    0                       # Average ticks per tags in use ((Tick/Count))
system.cpu.icache.tags.totalRefs                    0                       # Total number of references to valid blocks. (Count)
system.cpu.icache.tags.sampledRefs                  0                       # Sample count of references to valid blocks. (Count)
system.cpu.icache.tags.avgRefs                    nan                       # Average number of references to valid blocks. ((Count/Count))
system.cpu.icache.tags.warmupTick                   0                       # The tick when the warmup percentage was hit. (Tick)
system.cpu.icache.tags.tagAccesses                  0                       # Number of tag accesses (Count)
system.cpu.icache.tags.dataAccesses                 0                       # Number of data accesses (Count)
system.cpu.icache.tags.power_state.pwrStateResidencyTicks::UNDEFINED 135794734000                       # Cumulative time (in ticks) in various power states (Tick)
system.cpu.icache.tags.power_state.pwrStateResidencyTicks::ON 135794734000                       # Cumulative time (in ticks) in various power states (Tick)
system.cpu.icache.tags.power_state.pwrStateResidencyTicks::CLK_GATED 135794734000                       # Cumulative time (in ticks) in various power states (Tick)
system.cpu.icache.tags.power_state.pwrStateResidencyTicks::SRAM_RETENTION 135794734000                       # Cumulative time (in ticks) in various power states (Tick)
system.cpu.icache.tags.power_state.pwrStateResidencyTicks::OFF 135794734000                       # Cumulative time (in ticks) in various power states (Tick)
system.cpu.mmu.dtb.instHits                         0                       # ITB inst hits (Count)
system.cpu.mmu.dtb.instMisses                       0                       # ITB inst misses (Count)
system.cpu.mmu.dtb.readHits                         0                       # DTB read hits (Count)
system.cpu.mmu.dtb.readMisses                       0                       # DTB read misses (Count)
system.cpu.mmu.dtb.writeHits                        0                       # DTB write hits (Count)
system.cpu.mmu.dtb.writeMisses                      0                       # DTB write misses (Count)
system.cpu.mmu.dtb.inserts                          0                       # Number of times an entry is inserted into the TLB (Count)
system.cpu.mmu.dtb.flushTlb                         0                       # Number of times complete TLB was flushed (Count)
system.cpu.mmu.dtb.flushTlbMva                      0                       # Number of times TLB was flushed by MVA (Count)
system.cpu.mmu.dtb.flushTlbMvaAsid                  0                       # Number of times TLB was flushed by MVA & ASID (Count)
system.cpu.mmu.dtb.flushTlbAsid                     0                       # Number of times TLB was flushed by ASID (Count)
system.cpu.mmu.dtb.flushedEntries                   0                       # Number of entries that have been flushed from TLB (Count)
system.cpu.mmu.dtb.alignFaults                      0                       # Number of TLB faults due to alignment restrictions (Count)
system.cpu.mmu.dtb.prefetchFaults                   0                       # Number of TLB faults due to prefetch (Count)
system.cpu.mmu.dtb.domainFaults                     0                       # Number of TLB faults due to domain restrictions (Count)
system.cpu.mmu.dtb.permsFaults                      0                       # Number of TLB faults due to permissions restrictions (Count)
system.cpu.mmu.dtb.readAccesses                     0                       # DTB read accesses (Count)
system.cpu.mmu.dtb.writeAccesses                    0                       # DTB write accesses (Count)
system.cpu.mmu.dtb.instAccesses                     0                       # ITB inst accesses (Count)
system.cpu.mmu.dtb.hits                             0                       # Total TLB (inst and data) hits (Count)
system.cpu.mmu.dtb.misses                           0                       # Total TLB (inst and data) misses (Count)
system.cpu.mmu.dtb.accesses                         0                       # Total TLB (inst and data) accesses (Count)
system.cpu.mmu.dtb_walker.walks                     0                       # Table walker walks requested (Count)
system.cpu.mmu.dtb_walker.requestOrigin_Requested::Data            0                       # Table walker requests started/completed, data/inst (Count)
system.cpu.mmu.dtb_walker.requestOrigin_Requested::Inst            0                       # Table walker requests started/completed, data/inst (Count)
system.cpu.mmu.dtb_walker.requestOrigin_Requested::total            0                       # Table walker requests started/completed, data/inst (Count)
system.cpu.mmu.dtb_walker.requestOrigin_Completed::Data            0                       # Table walker requests started/completed, data/inst (Count)
system.cpu.mmu.dtb_walker.requestOrigin_Completed::Inst            0                       # Table walker requests started/completed, data/inst (Count)
system.cpu.mmu.dtb_walker.requestOrigin_Completed::total            0                       # Table walker requests started/completed, data/inst (Count)
system.cpu.mmu.dtb_walker.requestOrigin::total            0                       # Table walker requests started/completed, data/inst (Count)
system.cpu.mmu.dtb_walker.power_state.pwrStateResidencyTicks::UNDEFINED 135794734000                       # Cumulative time (in ticks) in various power states (Tick)
system.cpu.mmu.dtb_walker.power_state.pwrStateResidencyTicks::ON 135794734000                       # Cumulative time (in ticks) in various power states (Tick)
system.cpu.mmu.dtb_walker.power_state.pwrStateResidencyTicks::CLK_GATED 135794734000                       # Cumulative time (in ticks) in various power states (Tick)
system.cpu.mmu.dtb_walker.power_state.pwrStateResidencyTicks::SRAM_RETENTION 135794734000                       # Cumulative time (in ticks) in various power states (Tick)
system.cpu.mmu.dtb_walker.power_state.pwrStateResidencyTicks::OFF 135794734000                       # Cumulative time (in ticks) in various power states (Tick)
system.cpu.mmu.itb.instHits                         0                       # ITB inst hits (Count)
system.cpu.mmu.itb.instMisses                       0                       # ITB inst misses (Count)
system.cpu.mmu.itb.readHits                         0                       # DTB read hits (Count)
system.cpu.mmu.itb.readMisses                       0                       # DTB read misses (Count)
system.cpu.mmu.itb.writeHits                        0                       # DTB write hits (Count)
system.cpu.mmu.itb.writeMisses                      0                       # DTB write misses (Count)
system.cpu.mmu.itb.inserts                          0                       # Number of times an entry is inserted into the TLB (Count)
system.cpu.mmu.itb.flushTlb                         0                       # Number of times complete TLB was flushed (Count)
system.cpu.mmu.itb.flushTlbMva                      0                       # Number of times TLB was flushed by MVA (Count)
system.cpu.mmu.itb.flushTlbMvaAsid                  0                       # Number of times TLB was flushed by MVA & ASID (Count)
system.cpu.mmu.itb.flushTlbAsid                     0                       # Number of times TLB was flushed by ASID (Count)
system.cpu.mmu.itb.flushedEntries                   0                       # Number of entries that have been flushed from TLB (Count)
system.cpu.mmu.itb.alignFaults                      0                       # Number of TLB faults due to alignment restrictions (Count)
system.cpu.mmu.itb.prefetchFaults                   0                       # Number of TLB faults due to prefetch (Count)
system.cpu.mmu.itb.domainFaults                     0                       # Number of TLB faults due to domain restrictions (Count)
system.cpu.mmu.itb.permsFaults                      0                       # Number of TLB faults due to permissions restrictions (Count)
system.cpu.mmu.itb.readAccesses                     0                       # DTB read accesses (Count)
system.cpu.mmu.itb.writeAccesses                    0                       # DTB write accesses (Count)
system.cpu.mmu.itb.instAccesses                     0                       # ITB inst accesses (Count)
system.cpu.mmu.itb.hits                             0                       # Total TLB (inst and data) hits (Count)
system.cpu.mmu.itb.misses                           0                       # Total TLB (inst and data) misses (Count)
system.cpu.mmu.itb.accesses                         0                       # Total TLB (inst and data) accesses (Count)
system.cpu.mmu.itb_walker.walks                     0                       # Table walker walks requested (Count)
system.cpu.mmu.itb_walker.requestOrigin_Requested::Data            0                       # Table walker requests started/completed, data/inst (Count)
system.cpu.mmu.itb_walker.requestOrigin_Requested::Inst            0                       # Table walker requests started/completed, data/inst (Count)
system.cpu.mmu.itb_walker.requestOrigin_Requested::total            0                       # Table walker requests started/completed, data/inst (Count)
system.cpu.mmu.itb_walker.requestOrigin_Completed::Data            0                       # Table walker requests started/completed, data/inst (Count)
system.cpu.mmu.itb_walker.requestOrigin_Completed::Inst            0                       # Table walker requests started/completed, data/inst (Count)
system.cpu.mmu.itb_walker.requestOrigin_Completed::total            0                       # Table walker requests started/completed, data/inst (Count)
system.cpu.mmu.itb_walker.requestOrigin::total            0                       # Table walker requests started/completed, data/inst (Count)
system.cpu.mmu.itb_walker.power_state.pwrStateResidencyTicks::UNDEFINED 135794734000                       # Cumulative time (in ticks) in various power states (Tick)
system.cpu.mmu.itb_walker.power_state.pwrStateResidencyTicks::ON 135794734000                       # Cumulative time (in ticks) in various power states (Tick)
system.cpu.mmu.itb_walker.power_state.pwrStateResidencyTicks::CLK_GATED 135794734000                       # Cumulative time (in ticks) in various power states (Tick)
system.cpu.mmu.itb_walker.power_state.pwrStateResidencyTicks::SRAM_RETENTION 135794734000                       # Cumulative time (in ticks) in various power states (Tick)
system.cpu.mmu.itb_walker.power_state.pwrStateResidencyTicks::OFF 135794734000                       # Cumulative time (in ticks) in various power states (Tick)
system.cpu.mmu.stage2_dtb.instHits                  0                       # ITB inst hits (Count)
system.cpu.mmu.stage2_dtb.instMisses                0                       # ITB inst misses (Count)
system.cpu.mmu.stage2_dtb.readHits                  0                       # DTB read hits (Count)
system.cpu.mmu.stage2_dtb.readMisses                0                       # DTB read misses (Count)
system.cpu.mmu.stage2_dtb.writeHits                 0                       # DTB write hits (Count)
system.cpu.mmu.stage2_dtb.writeMisses               0                       # DTB write misses (Count)
system.cpu.mmu.stage2_dtb.inserts                   0                       # Number of times an entry is inserted into the TLB (Count)
system.cpu.mmu.stage2_dtb.flushTlb                  0                       # Number of times complete TLB was flushed (Count)
system.cpu.mmu.stage2_dtb.flushTlbMva               0                       # Number of times TLB was flushed by MVA (Count)
system.cpu.mmu.stage2_dtb.flushTlbMvaAsid            0                       # Number of times TLB was flushed by MVA & ASID (Count)
system.cpu.mmu.stage2_dtb.flushTlbAsid              0                       # Number of times TLB was flushed by ASID (Count)
system.cpu.mmu.stage2_dtb.flushedEntries            0                       # Number of entries that have been flushed from TLB (Count)
system.cpu.mmu.stage2_dtb.alignFaults               0                       # Number of TLB faults due to alignment restrictions (Count)
system.cpu.mmu.stage2_dtb.prefetchFaults            0                       # Number of TLB faults due to prefetch (Count)
system.cpu.mmu.stage2_dtb.domainFaults              0                       # Number of TLB faults due to domain restrictions (Count)
system.cpu.mmu.stage2_dtb.permsFaults               0                       # Number of TLB faults due to permissions restrictions (Count)
system.cpu.mmu.stage2_dtb.readAccesses              0                       # DTB read accesses (Count)
system.cpu.mmu.stage2_dtb.writeAccesses             0                       # DTB write accesses (Count)
system.cpu.mmu.stage2_dtb.instAccesses              0                       # ITB inst accesses (Count)
system.cpu.mmu.stage2_dtb.hits                      0                       # Total TLB (inst and data) hits (Count)
system.cpu.mmu.stage2_dtb.misses                    0                       # Total TLB (inst and data) misses (Count)
system.cpu.mmu.stage2_dtb.accesses                  0                       # Total TLB (inst and data) accesses (Count)
system.cpu.mmu.stage2_dtb_walker.walks              0                       # Table walker walks requested (Count)
system.cpu.mmu.stage2_dtb_walker.requestOrigin_Requested::Data            0                       # Table walker requests started/completed, data/inst (Count)
system.cpu.mmu.stage2_dtb_walker.requestOrigin_Requested::Inst            0                       # Table walker requests started/completed, data/inst (Count)
system.cpu.mmu.stage2_dtb_walker.requestOrigin_Requested::total            0                       # Table walker requests started/completed, data/inst (Count)
system.cpu.mmu.stage2_dtb_walker.requestOrigin_Completed::Data            0                       # Table walker requests started/completed, data/inst (Count)
system.cpu.mmu.stage2_dtb_walker.requestOrigin_Completed::Inst            0                       # Table walker requests started/completed, data/inst (Count)
system.cpu.mmu.stage2_dtb_walker.requestOrigin_Completed::total            0                       # Table walker requests started/completed, data/inst (Count)
system.cpu.mmu.stage2_dtb_walker.requestOrigin::total            0                       # Table walker requests started/completed, data/inst (Count)
system.cpu.mmu.stage2_dtb_walker.power_state.pwrStateResidencyTicks::UNDEFINED 135794734000                       # Cumulative time (in ticks) in various power states (Tick)
system.cpu.mmu.stage2_dtb_walker.power_state.pwrStateResidencyTicks::ON 135794734000                       # Cumulative time (in ticks) in various power states (Tick)
system.cpu.mmu.stage2_dtb_walker.power_state.pwrStateResidencyTicks::CLK_GATED 135794734000                       # Cumulative time (in ticks) in various power states (Tick)
system.cpu.mmu.stage2_dtb_walker.power_state.pwrStateResidencyTicks::SRAM_RETENTION 135794734000                       # Cumulative time (in ticks) in various power states (Tick)
system.cpu.mmu.stage2_dtb_walker.power_state.pwrStateResidencyTicks::OFF 135794734000                       # Cumulative time (in ticks) in various power states (Tick)
system.cpu.mmu.stage2_itb.instHits                  0                       # ITB inst hits (Count)
system.cpu.mmu.stage2_itb.instMisses                0                       # ITB inst misses (Count)
system.cpu.mmu.stage2_itb.readHits                  0                       # DTB read hits (Count)
system.cpu.mmu.stage2_itb.readMisses                0                       # DTB read misses (Count)
system.cpu.mmu.stage2_itb.writeHits                 0                       # DTB write hits (Count)
system.cpu.mmu.stage2_itb.writeMisses               0                       # DTB write misses (Count)
system.cpu.mmu.stage2_itb.inserts                   0                       # Number of times an entry is inserted into the TLB (Count)
system.cpu.mmu.stage2_itb.flushTlb                  0                       # Number of times complete TLB was flushed (Count)
system.cpu.mmu.stage2_itb.flushTlbMva               0                       # Number of times TLB was flushed by MVA (Count)
system.cpu.mmu.stage2_itb.flushTlbMvaAsid            0                       # Number of times TLB was flushed by MVA & ASID (Count)
system.cpu.mmu.stage2_itb.flushTlbAsid              0                       # Number of times TLB was flushed by ASID (Count)
system.cpu.mmu.stage2_itb.flushedEntries            0                       # Number of entries that have been flushed from TLB (Count)
system.cpu.mmu.stage2_itb.alignFaults               0                       # Number of TLB faults due to alignment restrictions (Count)
system.cpu.mmu.stage2_itb.prefetchFaults            0                       # Number of TLB faults due to prefetch (Count)
system.cpu.mmu.stage2_itb.domainFaults              0                       # Number of TLB faults due to domain restrictions (Count)
system.cpu.mmu.stage2_itb.permsFaults               0                       # Number of TLB faults due to permissions restrictions (Count)
system.cpu.mmu.stage2_itb.readAccesses              0                       # DTB read accesses (Count)
system.cpu.mmu.stage2_itb.writeAccesses             0                       # DTB write accesses (Count)
system.cpu.mmu.stage2_itb.instAccesses              0                       # ITB inst accesses (Count)
system.cpu.mmu.stage2_itb.hits                      0                       # Total TLB (inst and data) hits (Count)
system.cpu.mmu.stage2_itb.misses                    0                       # Total TLB (inst and data) misses (Count)
system.cpu.mmu.stage2_itb.accesses                  0                       # Total TLB (inst and data) accesses (Count)
system.cpu.mmu.stage2_itb_walker.walks              0                       # Table walker walks requested (Count)
system.cpu.mmu.stage2_itb_walker.requestOrigin_Requested::Data            0                       # Table walker requests started/completed, data/inst (Count)
system.cpu.mmu.stage2_itb_walker.requestOrigin_Requested::Inst            0                       # Table walker requests started/completed, data/inst (Count)
system.cpu.mmu.stage2_itb_walker.requestOrigin_Requested::total            0                       # Table walker requests started/completed, data/inst (Count)
system.cpu.mmu.stage2_itb_walker.requestOrigin_Completed::Data            0                       # Table walker requests started/completed, data/inst (Count)
system.cpu.mmu.stage2_itb_walker.requestOrigin_Completed::Inst            0                       # Table walker requests started/completed, data/inst (Count)
system.cpu.mmu.stage2_itb_walker.requestOrigin_Completed::total            0                       # Table walker requests started/completed, data/inst (Count)
system.cpu.mmu.stage2_itb_walker.requestOrigin::total            0                       # Table walker requests started/completed, data/inst (Count)
system.cpu.mmu.stage2_itb_walker.power_state.pwrStateResidencyTicks::UNDEFINED 135794734000                       # Cumulative time (in ticks) in various power states (Tick)
system.cpu.mmu.stage2_itb_walker.power_state.pwrStateResidencyTicks::ON 135794734000                       # Cumulative time (in ticks) in various power states (Tick)
system.cpu.mmu.stage2_itb_walker.power_state.pwrStateResidencyTicks::CLK_GATED 135794734000                       # Cumulative time (in ticks) in various power states (Tick)
system.cpu.mmu.stage2_itb_walker.power_state.pwrStateResidencyTicks::SRAM_RETENTION 135794734000                       # Cumulative time (in ticks) in various power states (Tick)
system.cpu.mmu.stage2_itb_walker.power_state.pwrStateResidencyTicks::OFF 135794734000                       # Cumulative time (in ticks) in various power states (Tick)
system.cpu.power_state.pwrStateResidencyTicks::UNDEFINED 135794734000                       # Cumulative time (in ticks) in various power states (Tick)
system.cpu.power_state.pwrStateResidencyTicks::ON 135794734000                       # Cumulative time (in ticks) in various power states (Tick)
system.cpu.power_state.pwrStateResidencyTicks::CLK_GATED 135794734000                       # Cumulative time (in ticks) in various power states (Tick)
system.cpu.power_state.pwrStateResidencyTicks::SRAM_RETENTION 135794734000                       # Cumulative time (in ticks) in various power states (Tick)
system.cpu.power_state.pwrStateResidencyTicks::OFF 135794734000                       # Cumulative time (in ticks) in various power states (Tick)
system.cpu.thread_0.numInsts                        0                       # Number of Instructions committed (Count)
system.cpu.thread_0.numOps                          0                       # Number of Ops committed (Count)
system.cpu.thread_0.numMemRefs                      0                       # Number of Memory References (Count)
system.cpu_clk_domain.clock                       500                       # Clock period in ticks (Tick)
system.cpu_voltage_domain.voltage                   1                       # Voltage in Volts (Volt)
system.iobus.transDist::InvalidCmd                100                       # Transaction distribution (Count)
system.iobus.transDist::ReadReq                   100                       # Transaction distribution (Count)
system.iobus.transDist::ReadResp                  100                       # Transaction distribution (Count)
system.iobus.transDist::ReadRespWithInvalidate          100                       # Transaction distribution (Count)
system.iobus.transDist::WriteReq                  100                       # Transaction distribution (Count)
system.iobus.transDist::WriteResp                 100                       # Transaction distribution (Count)
system.iobus.transDist::WriteCompleteResp          100                       # Transaction distribution (Count)
system.iobus.transDist::WritebackDirty            100                       # Transaction distribution (Count)
system.iobus.transDist::WritebackClean            100                       # Transaction distribution (Count)
system.iobus.transDist::WriteClean                100                       # Transaction distribution (Count)
system.iobus.transDist::CleanEvict                100                       # Transaction distribution (Count)
system.iobus.transDist::SoftPFReq                 100                       # Transaction distribution (Count)
system.iobus.transDist::SoftPFExReq               100                       # Transaction distribution (Count)
system.iobus.transDist::HardPFReq                 100                       # Transaction distribution (Count)
system.iobus.transDist::SoftPFResp                100                       # Transaction distribution (Count)
system.iobus.transDist::HardPFResp                100                       # Transaction distribution (Count)
system.iobus.transDist::WriteLineReq              100                       # Transaction distribution (Count)
system.iobus.transDist::UpgradeReq                100                       # Transaction distribution (Count)
system.iobus.transDist::SCUpgradeReq              100                       # Transaction distribution (Count)
system.iobus.transDist::UpgradeResp               100                       # Transaction distribution (Count)
system.iobus.transDist::SCUpgradeFailReq          100                       # Transaction distribution (Count)
system.iobus.transDist::UpgradeFailResp           100                       # Transaction distribution (Count)
system.iobus.transDist::ReadExReq                 100                       # Transaction distribution (Count)
system.iobus.transDist::ReadExResp                100                       # Transaction distribution (Count)
system.iobus.transDist::ReadCleanReq              100                       # Transaction distribution (Count)
system.iobus.transDist::ReadSharedReq             100                       # Transaction distribution (Count)
system.iobus.transDist::LoadLockedReq             100                       # Transaction distribution (Count)
system.iobus.transDist::StoreCondReq              100                       # Transaction distribution (Count)
system.iobus.transDist::StoreCondFailReq          100                       # Transaction distribution (Count)
system.iobus.transDist::StoreCondResp             100                       # Transaction distribution (Count)
system.iobus.transDist::SwapReq                   100                       # Transaction distribution (Count)
system.iobus.transDist::SwapResp                  100                       # Transaction distribution (Count)
system.iobus.transDist::Deprecated_MessageReq          100                       # Transaction distribution (Count)
system.iobus.transDist::Deprecated_MessageResp          100                       # Transaction distribution (Count)
system.iobus.transDist::MemFenceReq               100                       # Transaction distribution (Count)
system.iobus.transDist::MemSyncReq                100                       # Transaction distribution (Count)
system.iobus.transDist::MemSyncResp               100                       # Transaction distribution (Count)
system.iobus.transDist::MemFenceResp              100                       # Transaction distribution (Count)
system.iobus.transDist::CleanSharedReq            100                       # Transaction distribution (Count)
system.iobus.transDist::CleanSharedResp           100                       # Transaction distribution (Count)
system.iobus.transDist::CleanInvalidReq           100                       # Transaction distribution (Count)
system.iobus.transDist::CleanInvalidResp          100                       # Transaction distribution (Count)
system.iobus.transDist::InvalidDestError          100                       # Transaction distribution (Count)
system.iobus.transDist::BadAddressError           100                       # Transaction distribution (Count)
system.iobus.transDist::FunctionalReadError          100                       # Transaction distribution (Count)
system.iobus.transDist::FunctionalWriteError          100                       # Transaction distribution (Count)
system.iobus.transDist::PrintReq                  100                       # Transaction distribution (Count)
system.iobus.transDist::FlushReq                  100                       # Transaction distribution (Count)
system.iobus.transDist::InvalidateReq             100                       # Transaction distribution (Count)
system.iobus.transDist::InvalidateResp            100                       # Transaction distribution (Count)
system.iobus.transDist::HTMReq                    100                       # Transaction distribution (Count)
system.iobus.transDist::HTMReqResp                100                       # Transaction distribution (Count)
system.iobus.transDist::HTMAbort                  100                       # Transaction distribution (Count)
system.iobus.pktCount_system.bridge.mem_side_port::system.realview.flash1.port          100                       # Packet count per connected requestor and responder (Count)
system.iobus.pktCount_system.bridge.mem_side_port::system.realview.vram.port          100                       # Packet count per connected requestor and responder (Count)
system.iobus.pktCount_system.bridge.mem_side_port::system.realview.realview_io.pio          100                       # Packet count per connected requestor and responder (Count)
system.iobus.pktCount_system.bridge.mem_side_port::system.realview.kmi0.pio          100                       # Packet count per connected requestor and responder (Count)
system.iobus.pktCount_system.bridge.mem_side_port::system.realview.kmi1.pio          100                       # Packet count per connected requestor and responder (Count)
system.iobus.pktCount_system.bridge.mem_side_port::system.realview.watchdog.pio          100                       # Packet count per connected requestor and responder (Count)
system.iobus.pktCount_system.bridge.mem_side_port::system.realview.rtc.pio          100                       # Packet count per connected requestor and responder (Count)
system.iobus.pktCount_system.bridge.mem_side_port::system.realview.pci_host.pio          100                       # Packet count per connected requestor and responder (Count)
system.iobus.pktCount_system.bridge.mem_side_port::system.realview.energy_ctrl.pio          100                       # Packet count per connected requestor and responder (Count)
system.iobus.pktCount_system.bridge.mem_side_port::system.realview.pwr_ctrl.pio          100                       # Packet count per connected requestor and responder (Count)
system.iobus.pktCount_system.bridge.mem_side_port::system.realview.vio0.pio          100                       # Packet count per connected requestor and responder (Count)
system.iobus.pktCount_system.bridge.mem_side_port::system.realview.vio1.pio          100                       # Packet count per connected requestor and responder (Count)
system.iobus.pktCount_system.bridge.mem_side_port::system.realview.uart0.pio          100                       # Packet count per connected requestor and responder (Count)
system.iobus.pktCount_system.bridge.mem_side_port::system.realview.uart1.pio          100                       # Packet count per connected requestor and responder (Count)
system.iobus.pktCount_system.bridge.mem_side_port::system.realview.uart2.pio          100                       # Packet count per connected requestor and responder (Count)
system.iobus.pktCount_system.bridge.mem_side_port::system.realview.uart3.pio          100                       # Packet count per connected requestor and responder (Count)
system.iobus.pktCount_system.bridge.mem_side_port::system.pci_ide.pio          100                       # Packet count per connected requestor and responder (Count)
system.iobus.pktCount_system.bridge.mem_side_port::system.iocache.cpu_side_port          100                       # Packet count per connected requestor and responder (Count)
system.iobus.pktCount_system.bridge.mem_side_port::system.qkv_clstr.local_bus.cpu_side_ports[0]          100                       # Packet count per connected requestor and responder (Count)
system.iobus.pktCount_system.bridge.mem_side_port::total         1900                       # Packet count per connected requestor and responder (Count)
system.iobus.pktCount_system.pci_ide.dma::system.realview.flash1.port          100                       # Packet count per connected requestor and responder (Count)
system.iobus.pktCount_system.pci_ide.dma::system.realview.vram.port          100                       # Packet count per connected requestor and responder (Count)
system.iobus.pktCount_system.pci_ide.dma::system.realview.realview_io.pio          100                       # Packet count per connected requestor and responder (Count)
system.iobus.pktCount_system.pci_ide.dma::system.realview.kmi0.pio          100                       # Packet count per connected requestor and responder (Count)
system.iobus.pktCount_system.pci_ide.dma::system.realview.kmi1.pio          100                       # Packet count per connected requestor and responder (Count)
system.iobus.pktCount_system.pci_ide.dma::system.realview.watchdog.pio          100                       # Packet count per connected requestor and responder (Count)
system.iobus.pktCount_system.pci_ide.dma::system.realview.rtc.pio          100                       # Packet count per connected requestor and responder (Count)
system.iobus.pktCount_system.pci_ide.dma::system.realview.pci_host.pio          100                       # Packet count per connected requestor and responder (Count)
system.iobus.pktCount_system.pci_ide.dma::system.realview.energy_ctrl.pio          100                       # Packet count per connected requestor and responder (Count)
system.iobus.pktCount_system.pci_ide.dma::system.realview.pwr_ctrl.pio          100                       # Packet count per connected requestor and responder (Count)
system.iobus.pktCount_system.pci_ide.dma::system.realview.vio0.pio          100                       # Packet count per connected requestor and responder (Count)
system.iobus.pktCount_system.pci_ide.dma::system.realview.vio1.pio          100                       # Packet count per connected requestor and responder (Count)
system.iobus.pktCount_system.pci_ide.dma::system.realview.uart0.pio          100                       # Packet count per connected requestor and responder (Count)
system.iobus.pktCount_system.pci_ide.dma::system.realview.uart1.pio          100                       # Packet count per connected requestor and responder (Count)
[...]
system.realview.trusted_watchdog.power_state.pwrStateResidencyTicks::UNDEFINED 135794994000                       # Cumulative time (in ticks) in various power states (Tick)
system.realview.trusted_watchdog.power_state.pwrStateResidencyTicks::ON 135794994000                       # Cumulative time (in ticks) in various power states (Tick)
system.realview.trusted_watchdog.power_state.pwrStateResidencyTicks::CLK_GATED 135794994000                       # Cumulative time (in ticks) in various power states (Tick)
system.realview.trusted_watchdog.power_state.pwrStateResidencyTicks::SRAM_RETENTION 135794994000                       # Cumulative time (in ticks) in various power states (Tick)
system.realview.trusted_watchdog.power_state.pwrStateResidencyTicks::OFF 135794994000                       # Cumulative time (in ticks) in various power states (Tick)
system.realview.uart0.power_state.pwrStateResidencyTicks::UNDEFINED 135794994000                       # Cumulative time (in ticks) in various power states (Tick)
system.realview.uart0.power_state.pwrStateResidencyTicks::ON 135794994000                       # Cumulative time (in ticks) in various power states (Tick)
system.realview.uart0.power_state.pwrStateResidencyTicks::CLK_GATED 135794994000                       # Cumulative time (in ticks) in various power states (Tick)
system.realview.uart0.power_state.pwrStateResidencyTicks::SRAM_RETENTION 135794994000                       # Cumulative time (in ticks) in various power states (Tick)
system.realview.uart0.power_state.pwrStateResidencyTicks::OFF 135794994000                       # Cumulative time (in ticks) in various power states (Tick)
system.realview.uart1.power_state.pwrStateResidencyTicks::UNDEFINED 135794994000                       # Cumulative time (in ticks) in various power states (Tick)
system.realview.uart1.power_state.pwrStateResidencyTicks::ON 135794994000                       # Cumulative time (in ticks) in various power states (Tick)
system.realview.uart1.power_state.pwrStateResidencyTicks::CLK_GATED 135794994000                       # Cumulative time (in ticks) in various power states (Tick)
system.realview.uart1.power_state.pwrStateResidencyTicks::SRAM_RETENTION 135794994000                       # Cumulative time (in ticks) in various power states (Tick)
system.realview.uart1.power_state.pwrStateResidencyTicks::OFF 135794994000                       # Cumulative time (in ticks) in various power states (Tick)
system.realview.uart2.power_state.pwrStateResidencyTicks::UNDEFINED 135794994000                       # Cumulative time (in ticks) in various power states (Tick)
system.realview.uart2.power_state.pwrStateResidencyTicks::ON 135794994000                       # Cumulative time (in ticks) in various power states (Tick)
system.realview.uart2.power_state.pwrStateResidencyTicks::CLK_GATED 135794994000                       # Cumulative time (in ticks) in various power states (Tick)
system.realview.uart2.power_state.pwrStateResidencyTicks::SRAM_RETENTION 135794994000                       # Cumulative time (in ticks) in various power states (Tick)
system.realview.uart2.power_state.pwrStateResidencyTicks::OFF 135794994000                       # Cumulative time (in ticks) in various power states (Tick)
system.realview.uart3.power_state.pwrStateResidencyTicks::UNDEFINED 135794994000                       # Cumulative time (in ticks) in various power states (Tick)
system.realview.uart3.power_state.pwrStateResidencyTicks::ON 135794994000                       # Cumulative time (in ticks) in various power states (Tick)
system.realview.uart3.power_state.pwrStateResidencyTicks::CLK_GATED 135794994000                       # Cumulative time (in ticks) in various power states (Tick)
system.realview.uart3.power_state.pwrStateResidencyTicks::SRAM_RETENTION 135794994000                       # Cumulative time (in ticks) in various power states (Tick)
system.realview.uart3.power_state.pwrStateResidencyTicks::OFF 135794994000                       # Cumulative time (in ticks) in various power states (Tick)
system.realview.vgic.power_state.pwrStateResidencyTicks::UNDEFINED 135794994000                       # Cumulative time (in ticks) in various power states (Tick)
system.realview.vgic.power_state.pwrStateResidencyTicks::ON 135794994000                       # Cumulative time (in ticks) in various power states (Tick)
system.realview.vgic.power_state.pwrStateResidencyTicks::CLK_GATED 135794994000                       # Cumulative time (in ticks) in various power states (Tick)
system.realview.vgic.power_state.pwrStateResidencyTicks::SRAM_RETENTION 135794994000                       # Cumulative time (in ticks) in various power states (Tick)
system.realview.vgic.power_state.pwrStateResidencyTicks::OFF 135794994000                       # Cumulative time (in ticks) in various power states (Tick)
system.realview.vio0.power_state.pwrStateResidencyTicks::UNDEFINED 135794994000                       # Cumulative time (in ticks) in various power states (Tick)
system.realview.vio0.power_state.pwrStateResidencyTicks::ON 135794994000                       # Cumulative time (in ticks) in various power states (Tick)
system.realview.vio0.power_state.pwrStateResidencyTicks::CLK_GATED 135794994000                       # Cumulative time (in ticks) in various power states (Tick)
system.realview.vio0.power_state.pwrStateResidencyTicks::SRAM_RETENTION 135794994000                       # Cumulative time (in ticks) in various power states (Tick)
system.realview.vio0.power_state.pwrStateResidencyTicks::OFF 135794994000                       # Cumulative time (in ticks) in various power states (Tick)
system.realview.vio1.power_state.pwrStateResidencyTicks::UNDEFINED 135794994000                       # Cumulative time (in ticks) in various power states (Tick)
system.realview.vio1.power_state.pwrStateResidencyTicks::ON 135794994000                       # Cumulative time (in ticks) in various power states (Tick)
system.realview.vio1.power_state.pwrStateResidencyTicks::CLK_GATED 135794994000                       # Cumulative time (in ticks) in various power states (Tick)
system.realview.vio1.power_state.pwrStateResidencyTicks::SRAM_RETENTION 135794994000                       # Cumulative time (in ticks) in various power states (Tick)
system.realview.vio1.power_state.pwrStateResidencyTicks::OFF 135794994000                       # Cumulative time (in ticks) in various power states (Tick)
system.realview.vram.power_state.pwrStateResidencyTicks::UNDEFINED 135794994000                       # Cumulative time (in ticks) in various power states (Tick)
system.realview.vram.power_state.pwrStateResidencyTicks::ON 135794994000                       # Cumulative time (in ticks) in various power states (Tick)
system.realview.vram.power_state.pwrStateResidencyTicks::CLK_GATED 135794994000                       # Cumulative time (in ticks) in various power states (Tick)
system.realview.vram.power_state.pwrStateResidencyTicks::SRAM_RETENTION 135794994000                       # Cumulative time (in ticks) in various power states (Tick)
system.realview.vram.power_state.pwrStateResidencyTicks::OFF 135794994000                       # Cumulative time (in ticks) in various power states (Tick)
system.realview.watchdog.power_state.pwrStateResidencyTicks::UNDEFINED 135794994000                       # Cumulative time (in ticks) in various power states (Tick)
system.realview.watchdog.power_state.pwrStateResidencyTicks::ON 135794994000                       # Cumulative time (in ticks) in various power states (Tick)
system.realview.watchdog.power_state.pwrStateResidencyTicks::CLK_GATED 135794994000                       # Cumulative time (in ticks) in various power states (Tick)
system.realview.watchdog.power_state.pwrStateResidencyTicks::SRAM_RETENTION 135794994000                       # Cumulative time (in ticks) in various power states (Tick)
system.realview.watchdog.power_state.pwrStateResidencyTicks::OFF 135794994000                       # Cumulative time (in ticks) in various power states (Tick)
system.tol2bus.transDist::InvalidCmd          4196858                       # Transaction distribution (Count)
system.tol2bus.transDist::ReadReq             4196858                       # Transaction distribution (Count)
system.tol2bus.transDist::ReadResp            4196858                       # Transaction distribution (Count)
system.tol2bus.transDist::ReadRespWithInvalidate      4196858                       # Transaction distribution (Count)
system.tol2bus.transDist::WriteReq            4196858                       # Transaction distribution (Count)
system.tol2bus.transDist::WriteResp           4196858                       # Transaction distribution (Count)
system.tol2bus.transDist::WriteCompleteResp      4196858                       # Transaction distribution (Count)
system.tol2bus.transDist::WritebackDirty      4196858                       # Transaction distribution (Count)
system.tol2bus.transDist::WritebackClean      4196858                       # Transaction distribution (Count)
system.tol2bus.transDist::WriteClean          4196858                       # Transaction distribution (Count)
system.tol2bus.transDist::CleanEvict          4196858                       # Transaction distribution (Count)
system.tol2bus.transDist::SoftPFReq           4196858                       # Transaction distribution (Count)
system.tol2bus.transDist::SoftPFExReq         4196858                       # Transaction distribution (Count)
system.tol2bus.transDist::HardPFReq           4196858                       # Transaction distribution (Count)
system.tol2bus.transDist::SoftPFResp          4196858                       # Transaction distribution (Count)
system.tol2bus.transDist::HardPFResp          4196858                       # Transaction distribution (Count)
system.tol2bus.transDist::WriteLineReq        4196858                       # Transaction distribution (Count)
system.tol2bus.transDist::UpgradeReq          4196858                       # Transaction distribution (Count)
system.tol2bus.transDist::SCUpgradeReq        4196858                       # Transaction distribution (Count)
system.tol2bus.transDist::UpgradeResp         4196858                       # Transaction distribution (Count)
system.tol2bus.transDist::SCUpgradeFailReq      4196858                       # Transaction distribution (Count)
system.tol2bus.transDist::UpgradeFailResp      4196858                       # Transaction distribution (Count)
system.tol2bus.transDist::ReadExReq           4196858                       # Transaction distribution (Count)
system.tol2bus.transDist::ReadExResp          4196858                       # Transaction distribution (Count)
system.tol2bus.transDist::ReadCleanReq        4196858                       # Transaction distribution (Count)
system.tol2bus.transDist::ReadSharedReq       4196858                       # Transaction distribution (Count)
system.tol2bus.transDist::LoadLockedReq       4196858                       # Transaction distribution (Count)
system.tol2bus.transDist::StoreCondReq        4196858                       # Transaction distribution (Count)
system.tol2bus.transDist::StoreCondFailReq      4196858                       # Transaction distribution (Count)
system.tol2bus.transDist::StoreCondResp       4196858                       # Transaction distribution (Count)
system.tol2bus.transDist::SwapReq             4196858                       # Transaction distribution (Count)
system.tol2bus.transDist::SwapResp            4196858                       # Transaction distribution (Count)
system.tol2bus.transDist::Deprecated_MessageReq      4196858                       # Transaction distribution (Count)
system.tol2bus.transDist::Deprecated_MessageResp      4196858                       # Transaction distribution (Count)
system.tol2bus.transDist::MemFenceReq         4196858                       # Transaction distribution (Count)
system.tol2bus.transDist::MemSyncReq          4196858                       # Transaction distribution (Count)
system.tol2bus.transDist::MemSyncResp         4196858                       # Transaction distribution (Count)
system.tol2bus.transDist::MemFenceResp        4196858                       # Transaction distribution (Count)
system.tol2bus.transDist::CleanSharedReq      4196858                       # Transaction distribution (Count)
system.tol2bus.transDist::CleanSharedResp      4196858                       # Transaction distribution (Count)
system.tol2bus.transDist::CleanInvalidReq      4196858                       # Transaction distribution (Count)
system.tol2bus.transDist::CleanInvalidResp      4196858                       # Transaction distribution (Count)
system.tol2bus.transDist::InvalidDestError      4196858                       # Transaction distribution (Count)
system.tol2bus.transDist::BadAddressError      4196858                       # Transaction distribution (Count)
system.tol2bus.transDist::FunctionalReadError      4196858                       # Transaction distribution (Count)
system.tol2bus.transDist::FunctionalWriteError      4196858                       # Transaction distribution (Count)
system.tol2bus.transDist::PrintReq            4196858                       # Transaction distribution (Count)
system.tol2bus.transDist::FlushReq            4196858                       # Transaction distribution (Count)
system.tol2bus.transDist::InvalidateReq       4196858                       # Transaction distribution (Count)
system.tol2bus.transDist::InvalidateResp      4196858                       # Transaction distribution (Count)
system.tol2bus.transDist::HTMReq              4196858                       # Transaction distribution (Count)
system.tol2bus.transDist::HTMReqResp          4196858                       # Transaction distribution (Count)
system.tol2bus.transDist::HTMAbort            4196858                       # Transaction distribution (Count)
system.tol2bus.pktCount_system.cpu.icache.mem_side_port::system.l2.cpu_side_port      4196858                       # Packet count per connected requestor and responder (Count)
system.tol2bus.pktCount_system.cpu.dcache.mem_side_port::system.l2.cpu_side_port      4196858                       # Packet count per connected requestor and responder (Count)
system.tol2bus.pktCount_system.cpu.mmu.itb_walker.port::system.l2.cpu_side_port      4196858                       # Packet count per connected requestor and responder (Count)
system.tol2bus.pktCount_system.cpu.mmu.dtb_walker.port::system.l2.cpu_side_port      4196858                       # Packet count per connected requestor and responder (Count)
system.tol2bus.pktCount::total               16787432                       # Packet count per connected requestor and responder (Count)
system.tol2bus.pktSize_system.cpu.icache.mem_side_port::system.l2.cpu_side_port      8393642                       # Cumulative packet size per connected requestor and responder (Byte)
system.tol2bus.pktSize_system.cpu.dcache.mem_side_port::system.l2.cpu_side_port      8393642                       # Cumulative packet size per connected requestor and responder (Byte)
system.tol2bus.pktSize_system.cpu.mmu.itb_walker.port::system.l2.cpu_side_port      8393642                       # Cumulative packet size per connected requestor and responder (Byte)
system.tol2bus.pktSize_system.cpu.mmu.dtb_walker.port::system.l2.cpu_side_port      8393642                       # Cumulative packet size per connected requestor and responder (Byte)
system.tol2bus.pktSize::total                33574568                       # Cumulative packet size per connected requestor and responder (Byte)
system.tol2bus.snoops                               0                       # Total snoops (Count)
system.tol2bus.snoopTraffic                         0                       # Total snoop traffic (Byte)
system.tol2bus.snoopFanout::samples           2098429                       # Request fanout histogram
system.tol2bus.snoopFanout::mean                    0                       # Request fanout histogram
system.tol2bus.snoopFanout::stdev                   0                       # Request fanout histogram
system.tol2bus.snoopFanout::underflows              0      0.00%      0.00% # Request fanout histogram
system.tol2bus.snoopFanout::0                 2098429    100.00%    100.00% # Request fanout histogram
system.tol2bus.snoopFanout::1                       0      0.00%    100.00% # Request fanout histogram
system.tol2bus.snoopFanout::2                       0      0.00%    100.00% # Request fanout histogram
system.tol2bus.snoopFanout::overflows               0      0.00%    100.00% # Request fanout histogram
system.tol2bus.snoopFanout::min_value               0                       # Request fanout histogram
system.tol2bus.snoopFanout::max_value               0                       # Request fanout histogram
system.tol2bus.snoopFanout::total             2098429                       # Request fanout histogram
system.tol2bus.power_state.pwrStateResidencyTicks::UNDEFINED 135794994000                       # Cumulative time (in ticks) in various power states (Tick)
system.tol2bus.power_state.pwrStateResidencyTicks::ON 135794994000                       # Cumulative time (in ticks) in various power states (Tick)
system.tol2bus.power_state.pwrStateResidencyTicks::CLK_GATED 135794994000                       # Cumulative time (in ticks) in various power states (Tick)
system.tol2bus.power_state.pwrStateResidencyTicks::SRAM_RETENTION 135794994000                       # Cumulative time (in ticks) in various power states (Tick)
system.tol2bus.power_state.pwrStateResidencyTicks::OFF 135794994000                       # Cumulative time (in ticks) in various power states (Tick)
system.tol2bus.reqLayer0.occupancy         1080845000                       # Layer occupancy (ticks) (Tick)
system.tol2bus.reqLayer0.utilization              0.0                       # Layer utilization (Ratio)
system.tol2bus.respLayer0.occupancy        1923993000                       # Layer occupancy (ticks) (Tick)
system.tol2bus.respLayer0.utilization             0.0                       # Layer utilization (Ratio)
system.tol2bus.respLayer1.occupancy         142805500                       # Layer occupancy (ticks) (Tick)
system.tol2bus.respLayer1.utilization             0.0                       # Layer utilization (Ratio)
system.tol2bus.snoop_filter.totRequests             0                       # Total number of requests made to the snoop filter. (Count)
system.tol2bus.snoop_filter.hitSingleRequests            0                       # Number of requests hitting in the snoop filter with a single holder of the requested data. (Count)
system.tol2bus.snoop_filter.hitMultiRequests            0                       # Number of requests hitting in the snoop filter with multiple (>1) holders of the requested data. (Count)
system.tol2bus.snoop_filter.totSnoops               0                       # Total number of snoops made to the snoop filter. (Count)
system.tol2bus.snoop_filter.hitSingleSnoops            0                       # Number of snoops hitting in the snoop filter with a single holder of the requested data. (Count)
system.tol2bus.snoop_filter.hitMultiSnoops            0                       # Number of snoops hitting in the snoop filter with multiple (>1) holders of the requested data. (Count)
system.voltage_domain.voltage                       1                       # Voltage in Volts (Volt)
system.workload.inst.arm                            0                       # number of arm instructions executed (Count)
system.workload.inst.quiesce                        0                       # number of quiesce instructions executed (Count)

---------- End Simulation Statistics   ----------
