
---------- Begin Simulation Statistics ----------
simSeconds                                   0.051230                       # Number of seconds simulated (Second)
simTicks                                  51230355000                       # Number of ticks simulated (Tick)
finalTick                                 51231487000                       # Number of ticks from beginning of simulation (restored from checkpoints and never reset) (Tick)
simFreq                                  1000000000000                       # The number of ticks per simulated second ((Tick/Second))
hostSeconds                                    775.20                       # Real time elapsed on the host (Second)
hostTickRate                                 66086590                       # The number of ticks simulated per host second (ticks/s) ((Tick/Second))
hostMemory                                    4660692                       # Number of bytes of host memory used (Byte)
simInsts                                      3043316                       # Number of instructions simulated (Count)
simOps                                        3068215                       # Number of ops (including micro ops) simulated (Count)
hostInstRate                                     3926                       # Simulator instruction rate (inst/s) ((Count/Second))
hostOpRate                                       3958                       # Simulator op (including micro ops) rate (op/s) ((Count/Second))
system.bridge.power_state.pwrStateResidencyTicks::UNDEFINED  51231487000                       # Cumulative time (in ticks) in various power states (Tick)
system.bridge.power_state.pwrStateResidencyTicks::ON  51231487000                       # Cumulative time (in ticks) in various power states (Tick)
system.bridge.power_state.pwrStateResidencyTicks::CLK_GATED  51231487000                       # Cumulative time (in ticks) in various power states (Tick)
system.bridge.power_state.pwrStateResidencyTicks::SRAM_RETENTION  51231487000                       # Cumulative time (in ticks) in various power states (Tick)
system.bridge.power_state.pwrStateResidencyTicks::OFF  51231487000                       # Cumulative time (in ticks) in various power states (Tick)
system.clk_domain.clock                          1000                       # Clock period in ticks (Tick)
system.cpu.numCycles                        102460710                       # Number of cpu cycles simulated (Cycle)
system.cpu.numWorkItemsStarted                      0                       # Number of work items this cpu started (Count)
system.cpu.numWorkItemsCompleted                    0                       # Number of work items this cpu completed (Count)
system.cpu.instsAdded                         3112666                       # Number of instructions added to the IQ (excludes non-spec) (Count)
system.cpu.nonSpecInstsAdded                       12                       # Number of non-speculative instructions added to the IQ (Count)
system.cpu.instsIssued                        7710086                       # Number of instructions issued (Count)
system.cpu.squashedInstsIssued                      8                       # Number of squashed instructions issued (Count)
system.cpu.squashedInstsExamined                44510                       # Number of squashed instructions iterated over during squash; mainly for profiling (Count)
system.cpu.squashedOperandsExamined             19175                       # Number of squashed operands that are examined and possibly removed from graph (Count)
system.cpu.squashedNonSpecRemoved                  10                       # Number of squashed non-spec instructions that were removed (Count)
system.cpu.numIssuedDist::samples            59270957                       # Number of insts issued each cycle
system.cpu.numIssuedDist::mean               0.130082                       # Number of insts issued each cycle
system.cpu.numIssuedDist::stdev              0.625794                       # Number of insts issued each cycle
system.cpu.numIssuedDist::underflows                0      0.00%      0.00% # Number of insts issued each cycle
system.cpu.numIssuedDist::0                  55956688     94.41%     94.41% # Number of insts issued each cycle
system.cpu.numIssuedDist::1                   1563607      2.64%     97.05% # Number of insts issued each cycle
system.cpu.numIssuedDist::2                    308268      0.52%     97.57% # Number of insts issued each cycle
system.cpu.numIssuedDist::3                    248036      0.42%     97.98% # Number of insts issued each cycle
system.cpu.numIssuedDist::4                   1186015      2.00%     99.99% # Number of insts issued each cycle
system.cpu.numIssuedDist::5                      8305      0.01%    100.00% # Number of insts issued each cycle
system.cpu.numIssuedDist::6                        26      0.00%    100.00% # Number of insts issued each cycle
system.cpu.numIssuedDist::7                         2      0.00%    100.00% # Number of insts issued each cycle
system.cpu.numIssuedDist::8                        10      0.00%    100.00% # Number of insts issued each cycle
system.cpu.numIssuedDist::overflows                 0      0.00%    100.00% # Number of insts issued each cycle
system.cpu.numIssuedDist::min_value                 0                       # Number of insts issued each cycle
system.cpu.numIssuedDist::max_value                 8                       # Number of insts issued each cycle
system.cpu.numIssuedDist::total              59270957                       # Number of insts issued each cycle
system.cpu.statFuBusy::No_OpClass              765059      1.89%      1.89% # attempts to use FU when none available (Count)
system.cpu.statFuBusy::IntAlu                  765059      1.89%      3.77% # attempts to use FU when none available (Count)
system.cpu.statFuBusy::IntMult                 765059      1.89%      5.66% # attempts to use FU when none available (Count)
system.cpu.statFuBusy::IntDiv                  765059      1.89%      7.55% # attempts to use FU when none available (Count)
system.cpu.statFuBusy::FloatAdd                765059      1.89%      9.43% # attempts to use FU when none available (Count)
system.cpu.statFuBusy::FloatCmp                765059      1.89%     11.32% # attempts to use FU when none available (Count)
system.cpu.statFuBusy::FloatCvt                765059      1.89%     13.21% # attempts to use FU when none available (Count)
system.cpu.statFuBusy::FloatMult               765059      1.89%     15.09% # attempts to use FU when none available (Count)
system.cpu.statFuBusy::FloatMultAcc            765059      1.89%     16.98% # attempts to use FU when none available (Count)
system.cpu.statFuBusy::FloatDiv                765059      1.89%     18.87% # attempts to use FU when none available (Count)
system.cpu.statFuBusy::FloatMisc               765059      1.89%     20.75% # attempts to use FU when none available (Count)
system.cpu.statFuBusy::FloatSqrt               765059      1.89%     22.64% # attempts to use FU when none available (Count)
system.cpu.statFuBusy::SimdAdd                 765059      1.89%     24.53% # attempts to use FU when none available (Count)
system.cpu.statFuBusy::SimdAddAcc              765059      1.89%     26.42% # attempts to use FU when none available (Count)
system.cpu.statFuBusy::SimdAlu                 765059      1.89%     28.30% # attempts to use FU when none available (Count)
system.cpu.statFuBusy::SimdCmp                 765059      1.89%     30.19% # attempts to use FU when none available (Count)
system.cpu.statFuBusy::SimdCvt                 765059      1.89%     32.08% # attempts to use FU when none available (Count)
system.cpu.statFuBusy::SimdMisc                765059      1.89%     33.96% # attempts to use FU when none available (Count)
system.cpu.statFuBusy::SimdMult                765059      1.89%     35.85% # attempts to use FU when none available (Count)
system.cpu.statFuBusy::SimdMultAcc             765059      1.89%     37.74% # attempts to use FU when none available (Count)
system.cpu.statFuBusy::SimdShift               765059      1.89%     39.62% # attempts to use FU when none available (Count)
system.cpu.statFuBusy::SimdShiftAcc            765059      1.89%     41.51% # attempts to use FU when none available (Count)
system.cpu.statFuBusy::SimdDiv                 765059      1.89%     43.40% # attempts to use FU when none available (Count)
system.cpu.statFuBusy::SimdSqrt                765059      1.89%     45.28% # attempts to use FU when none available (Count)
system.cpu.statFuBusy::SimdFloatAdd            765059      1.89%     47.17% # attempts to use FU when none available (Count)
system.cpu.statFuBusy::SimdFloatAlu            765059      1.89%     49.06% # attempts to use FU when none available (Count)
system.cpu.statFuBusy::SimdFloatCmp            765059      1.89%     50.94% # attempts to use FU when none available (Count)
system.cpu.statFuBusy::SimdFloatCvt            765059      1.89%     52.83% # attempts to use FU when none available (Count)
system.cpu.statFuBusy::SimdFloatDiv            765059      1.89%     54.72% # attempts to use FU when none available (Count)
system.cpu.statFuBusy::SimdFloatMisc           765059      1.89%     56.60% # attempts to use FU when none available (Count)
system.cpu.statFuBusy::SimdFloatMult           765059      1.89%     58.49% # attempts to use FU when none available (Count)
system.cpu.statFuBusy::SimdFloatMultAcc        765059      1.89%     60.38% # attempts to use FU when none available (Count)
system.cpu.statFuBusy::SimdFloatSqrt           765059      1.89%     62.26% # attempts to use FU when none available (Count)
system.cpu.statFuBusy::SimdReduceAdd           765059      1.89%     64.15% # attempts to use FU when none available (Count)
system.cpu.statFuBusy::SimdReduceAlu           765059      1.89%     66.04% # attempts to use FU when none available (Count)
system.cpu.statFuBusy::SimdReduceCmp           765059      1.89%     67.92% # attempts to use FU when none available (Count)
system.cpu.statFuBusy::SimdFloatReduceAdd       765059      1.89%     69.81% # attempts to use FU when none available (Count)
system.cpu.statFuBusy::SimdFloatReduceCmp       765059      1.89%     71.70% # attempts to use FU when none available (Count)
system.cpu.statFuBusy::SimdAes                 765059      1.89%     73.58% # attempts to use FU when none available (Count)
system.cpu.statFuBusy::SimdAesMix              765059      1.89%     75.47% # attempts to use FU when none available (Count)
system.cpu.statFuBusy::SimdSha1Hash            765059      1.89%     77.36% # attempts to use FU when none available (Count)
system.cpu.statFuBusy::SimdSha1Hash2           765059      1.89%     79.25% # attempts to use FU when none available (Count)
system.cpu.statFuBusy::SimdSha256Hash          765059      1.89%     81.13% # attempts to use FU when none available (Count)
system.cpu.statFuBusy::SimdSha256Hash2         765059      1.89%     83.02% # attempts to use FU when none available (Count)
system.cpu.statFuBusy::SimdShaSigma2           765059      1.89%     84.91% # attempts to use FU when none available (Count)
system.cpu.statFuBusy::SimdShaSigma3           765059      1.89%     86.79% # attempts to use FU when none available (Count)
system.cpu.statFuBusy::SimdPredAlu             765059      1.89%     88.68% # attempts to use FU when none available (Count)
system.cpu.statFuBusy::MemRead                 765059      1.89%     90.57% # attempts to use FU when none available (Count)
system.cpu.statFuBusy::MemWrite                765059      1.89%     92.45% # attempts to use FU when none available (Count)
system.cpu.statFuBusy::FloatMemRead            765059      1.89%     94.34% # attempts to use FU when none available (Count)
system.cpu.statFuBusy::FloatMemWrite           765059      1.89%     96.23% # attempts to use FU when none available (Count)
system.cpu.statFuBusy::IprAccess               765059      1.89%     98.11% # attempts to use FU when none available (Count)
system.cpu.statFuBusy::InstPrefetch            765059      1.89%    100.00% # attempts to use FU when none available (Count)
system.cpu.statIssuedInstType_0::No_OpClass      7710086      1.89%      1.89% # Number of instructions issued per FU type, per thread (Count)
system.cpu.statIssuedInstType_0::IntAlu       7710086      1.89%      3.77% # Number of instructions issued per FU type, per thread (Count)
system.cpu.statIssuedInstType_0::IntMult      7710086      1.89%      5.66% # Number of instructions issued per FU type, per thread (Count)
system.cpu.statIssuedInstType_0::IntDiv       7710086      1.89%      7.55% # Number of instructions issued per FU type, per thread (Count)
system.cpu.statIssuedInstType_0::FloatAdd      7710086      1.89%      9.43% # Number of instructions issued per FU type, per thread (Count)
system.cpu.statIssuedInstType_0::FloatCmp      7710086      1.89%     11.32% # Number of instructions issued per FU type, per thread (Count)
system.cpu.statIssuedInstType_0::FloatCvt      7710086      1.89%     13.21% # Number of instructions issued per FU type, per thread (Count)
system.cpu.statIssuedInstType_0::FloatMult      7710086      1.89%     15.09% # Number of instructions issued per FU type, per thread (Count)
system.cpu.statIssuedInstType_0::FloatMultAcc      7710086      1.89%     16.98% # Number of instructions issued per FU type, per thread (Count)
system.cpu.statIssuedInstType_0::FloatDiv      7710086      1.89%     18.87% # Number of instructions issued per FU type, per thread (Count)
system.cpu.statIssuedInstType_0::FloatMisc      7710086      1.89%     20.75% # Number of instructions issued per FU type, per thread (Count)
system.cpu.statIssuedInstType_0::FloatSqrt      7710086      1.89%     22.64% # Number of instructions issued per FU type, per thread (Count)
system.cpu.statIssuedInstType_0::SimdAdd      7710086      1.89%     24.53% # Number of instructions issued per FU type, per thread (Count)
system.cpu.statIssuedInstType_0::SimdAddAcc      7710086      1.89%     26.42% # Number of instructions issued per FU type, per thread (Count)
system.cpu.statIssuedInstType_0::SimdAlu      7710086      1.89%     28.30% # Number of instructions issued per FU type, per thread (Count)
system.cpu.statIssuedInstType_0::SimdCmp      7710086      1.89%     30.19% # Number of instructions issued per FU type, per thread (Count)
system.cpu.statIssuedInstType_0::SimdCvt      7710086      1.89%     32.08% # Number of instructions issued per FU type, per thread (Count)
system.cpu.statIssuedInstType_0::SimdMisc      7710086      1.89%     33.96% # Number of instructions issued per FU type, per thread (Count)
system.cpu.statIssuedInstType_0::SimdMult      7710086      1.89%     35.85% # Number of instructions issued per FU type, per thread (Count)
system.cpu.statIssuedInstType_0::SimdMultAcc      7710086      1.89%     37.74% # Number of instructions issued per FU type, per thread (Count)
system.cpu.statIssuedInstType_0::SimdShift      7710086      1.89%     39.62% # Number of instructions issued per FU type, per thread (Count)
system.cpu.statIssuedInstType_0::SimdShiftAcc      7710086      1.89%     41.51% # Number of instructions issued per FU type, per thread (Count)
system.cpu.statIssuedInstType_0::SimdDiv      7710086      1.89%     43.40% # Number of instructions issued per FU type, per thread (Count)
system.cpu.statIssuedInstType_0::SimdSqrt      7710086      1.89%     45.28% # Number of instructions issued per FU type, per thread (Count)
system.cpu.statIssuedInstType_0::SimdFloatAdd      7710086      1.89%     47.17% # Number of instructions issued per FU type, per thread (Count)
system.cpu.statIssuedInstType_0::SimdFloatAlu      7710086      1.89%     49.06% # Number of instructions issued per FU type, per thread (Count)
system.cpu.statIssuedInstType_0::SimdFloatCmp      7710086      1.89%     50.94% # Number of instructions issued per FU type, per thread (Count)
system.cpu.statIssuedInstType_0::SimdFloatCvt      7710086      1.89%     52.83% # Number of instructions issued per FU type, per thread (Count)
system.cpu.statIssuedInstType_0::SimdFloatDiv      7710086      1.89%     54.72% # Number of instructions issued per FU type, per thread (Count)
system.cpu.statIssuedInstType_0::SimdFloatMisc      7710086      1.89%     56.60% # Number of instructions issued per FU type, per thread (Count)
system.cpu.statIssuedInstType_0::SimdFloatMult      7710086      1.89%     58.49% # Number of instructions issued per FU type, per thread (Count)
system.cpu.statIssuedInstType_0::SimdFloatMultAcc      7710086      1.89%     60.38% # Number of instructions issued per FU type, per thread (Count)
system.cpu.statIssuedInstType_0::SimdFloatSqrt      7710086      1.89%     62.26% # Number of instructions issued per FU type, per thread (Count)
system.cpu.statIssuedInstType_0::SimdReduceAdd      7710086      1.89%     64.15% # Number of instructions issued per FU type, per thread (Count)
system.cpu.statIssuedInstType_0::SimdReduceAlu      7710086      1.89%     66.04% # Number of instructions issued per FU type, per thread (Count)
system.cpu.statIssuedInstType_0::SimdReduceCmp      7710086      1.89%     67.92% # Number of instructions issued per FU type, per thread (Count)
system.cpu.statIssuedInstType_0::SimdFloatReduceAdd      7710086      1.89%     69.81% # Number of instructions issued per FU type, per thread (Count)
system.cpu.statIssuedInstType_0::SimdFloatReduceCmp      7710086      1.89%     71.70% # Number of instructions issued per FU type, per thread (Count)
system.cpu.statIssuedInstType_0::SimdAes      7710086      1.89%     73.58% # Number of instructions issued per FU type, per thread (Count)
system.cpu.statIssuedInstType_0::SimdAesMix      7710086      1.89%     75.47% # Number of instructions issued per FU type, per thread (Count)
system.cpu.statIssuedInstType_0::SimdSha1Hash      7710086      1.89%     77.36% # Number of instructions issued per FU type, per thread (Count)
system.cpu.statIssuedInstType_0::SimdSha1Hash2      7710086      1.89%     79.25% # Number of instructions issued per FU type, per thread (Count)
system.cpu.statIssuedInstType_0::SimdSha256Hash      7710086      1.89%     81.13% # Number of instructions issued per FU type, per thread (Count)
system.cpu.statIssuedInstType_0::SimdSha256Hash2      7710086      1.89%     83.02% # Number of instructions issued per FU type, per thread (Count)
system.cpu.statIssuedInstType_0::SimdShaSigma2      7710086      1.89%     84.91% # Number of instructions issued per FU type, per thread (Count)
system.cpu.statIssuedInstType_0::SimdShaSigma3      7710086      1.89%     86.79% # Number of instructions issued per FU type, per thread (Count)
system.cpu.statIssuedInstType_0::SimdPredAlu      7710086      1.89%     88.68% # Number of instructions issued per FU type, per thread (Count)
system.cpu.statIssuedInstType_0::MemRead      7710086      1.89%     90.57% # Number of instructions issued per FU type, per thread (Count)
system.cpu.statIssuedInstType_0::MemWrite      7710086      1.89%     92.45% # Number of instructions issued per FU type, per thread (Count)
system.cpu.statIssuedInstType_0::FloatMemRead      7710086      1.89%     94.34% # Number of instructions issued per FU type, per thread (Count)
system.cpu.statIssuedInstType_0::FloatMemWrite      7710086      1.89%     96.23% # Number of instructions issued per FU type, per thread (Count)
system.cpu.statIssuedInstType_0::IprAccess      7710086      1.89%     98.11% # Number of instructions issued per FU type, per thread (Count)
system.cpu.statIssuedInstType_0::InstPrefetch      7710086      1.89%    100.00% # Number of instructions issued per FU type, per thread (Count)
system.cpu.statIssuedInstType_0::total      408634558                       # Number of instructions issued per FU type, per thread (Count)
system.cpu.issueRate                         0.075249                       # Inst issue rate ((Count/Cycle))
system.cpu.fuBusy                              765059                       # FU busy when requested (Count)
system.cpu.fuBusyRate                        0.099228                       # FU busy rate (busy events/executed inst) ((Count/Count))
system.cpu.intInstQueueReads                 75456196                       # Number of integer instruction queue reads (Count)
system.cpu.intInstQueueWrites                 3157188                       # Number of integer instruction queue writes (Count)
system.cpu.intInstQueueWakeupAccesses         3103951                       # Number of integer instruction queue wakeup accesses (Count)
system.cpu.fpInstQueueReads                         0                       # Number of floating instruction queue reads (Count)
system.cpu.fpInstQueueWrites                        0                       # Number of floating instruction queue writes (Count)
system.cpu.fpInstQueueWakeupAccesses                0                       # Number of floating instruction queue wakeup accesses (Count)
system.cpu.vecInstQueueReads                        0                       # Number of vector instruction queue reads (Count)
system.cpu.vecInstQueueWrites                       0                       # Number of vector instruction queue writes (Count)
system.cpu.vecInstQueueWakeupAccesses               0                       # Number of vector instruction queue wakeup accesses (Count)
system.cpu.intAluAccesses                     8475145                       # Number of integer alu accesses (Count)
system.cpu.fpAluAccesses                            0                       # Number of floating point alu accesses (Count)
system.cpu.vecAluAccesses                           0                       # Number of vector alu accesses (Count)
system.cpu.idleCycles                               0                       # Number of cycles IEW is idle (Cycle)
system.cpu.squashCycles                         12282                       # Number of cycles IEW is squashing (Cycle)
system.cpu.blockCycles                       51375720                       # Number of cycles IEW is blocking (Cycle)
system.cpu.unblockCycles                         4949                       # Number of cycles IEW is unblocking (Cycle)
system.cpu.dispatchedInsts                    3112678                       # Number of instructions dispatched to IQ (Count)
system.cpu.dispSquashedInsts                        0                       # Number of squashed instructions skipped by dispatch (Count)
system.cpu.dispLoadInsts                       391643                       # Number of dispatched load instructions (Count)
system.cpu.dispStoreInsts                      156774                       # Number of dispatched store instructions (Count)
system.cpu.dispNonSpecInsts                        12                       # Number of dispatched non-speculative instructions (Count)
system.cpu.iqFullEvents                            54                       # Number of times the IQ has become full, causing a stall (Count)
system.cpu.lsqFullEvents                         4881                       # Number of times the LSQ has become full, causing a stall (Count)
system.cpu.memOrderViolationEvents                  0                       # Number of memory order violations (Count)
system.cpu.predictedTakenIncorrect               8124                       # Number of branches that were predicted taken incorrectly (Count)
system.cpu.predictedNotTakenIncorrect            6859                       # Number of branches that were predicted not taken incorrectly (Count)
system.cpu.branchMispredicts                    14983                       # Number of branch mispredicts detected at execute (Count)
system.cpu.numInsts                           7706699                       # Number of executed instructions (Count)
system.cpu.numLoadInsts                       4993746                       # Number of load instructions executed (Count)
system.cpu.numSquashedInsts                      3387                       # Number of squashed instructions skipped in execute (Count)
system.cpu.numSwp                                   0                       # Number of swp insts executed (Count)
system.cpu.numNop                                   0                       # Number of nop insts executed (Count)
system.cpu.numRefs                            5150349                       # Number of memory reference insts executed (Count)
system.cpu.numBranches                         513273                       # Number of branches executed (Count)
system.cpu.numStoreInsts                       156603                       # Number of stores executed (Count)
system.cpu.numRate                           0.075216                       # Inst execution rate ((Count/Cycle))
system.cpu.instsToCommit                      7706699                       # Cumulative count of insts sent to commit (Count)
system.cpu.writebackCount                     3103951                       # Cumulative count of insts written-back (Count)
system.cpu.producerInst                       2111153                       # Number of instructions producing a value (Count)
system.cpu.consumerInst                       4287036                       # Number of instructions consuming a value (Count)
system.cpu.wbRate                            0.030294                       # Insts written-back per cycle ((Count/Cycle))
system.cpu.wbFanout                          0.492450                       # Average fanout of values written-back ((Count/Count))
system.cpu.timesIdled                          632527                       # Number of times that the entire CPU went into an idle state and unscheduled itself (Count)
system.cpu.idleCycles                        43189753                       # Total number of cycles that the CPU has spent unscheduled due to idling (Cycle)
system.cpu.committedInsts                     3043277                       # Number of Instructions Simulated (Count)
system.cpu.committedOps                       3068168                       # Number of Ops (including micro ops) Simulated (Count)
system.cpu.cpi                              33.667888                       # CPI: Cycles Per Instruction ((Cycle/Count))
system.cpu.totalCpi                         33.667888                       # CPI: Total CPI of All Threads ((Cycle/Count))
system.cpu.ipc                               0.029702                       # IPC: Instructions Per Cycle ((Count/Cycle))
system.cpu.totalIpc                          0.029702                       # IPC: Total IPC of All Threads ((Count/Cycle))
system.cpu.intRegfileReads                    5550709                       # Number of integer regfile reads (Count)
system.cpu.intRegfileWrites                   1991801                       # Number of integer regfile writes (Count)
system.cpu.ccRegfileReads                    24293082                       # number of cc regfile reads (Count)
system.cpu.ccRegfileWrites                    1940395                       # number of cc regfile writes (Count)
system.cpu.miscRegfileReads                  76951814                       # number of misc regfile reads (Count)
system.cpu.miscRegfileWrites                        6                       # number of misc regfile writes (Count)
system.cpu.MemDepUnit__0.insertedLoads         391643                       # Number of loads inserted to the mem dependence unit. (Count)
system.cpu.MemDepUnit__0.insertedStores        156774                       # Number of stores inserted to the mem dependence unit. (Count)
system.cpu.MemDepUnit__0.conflictingLoads            0                       # Number of conflicting loads. (Count)
system.cpu.MemDepUnit__0.conflictingStores            0                       # Number of conflicting stores. (Count)
system.cpu.MemDepUnit__1.insertedLoads              0                       # Number of loads inserted to the mem dependence unit. (Count)
system.cpu.MemDepUnit__1.insertedStores             0                       # Number of stores inserted to the mem dependence unit. (Count)
system.cpu.MemDepUnit__1.conflictingLoads            0                       # Number of conflicting loads. (Count)
system.cpu.MemDepUnit__1.conflictingStores            0                       # Number of conflicting stores. (Count)
system.cpu.MemDepUnit__2.insertedLoads              0                       # Number of loads inserted to the mem dependence unit. (Count)
system.cpu.MemDepUnit__2.insertedStores             0                       # Number of stores inserted to the mem dependence unit. (Count)
system.cpu.MemDepUnit__2.conflictingLoads            0                       # Number of conflicting loads. (Count)
system.cpu.MemDepUnit__2.conflictingStores            0                       # Number of conflicting stores. (Count)
system.cpu.MemDepUnit__3.insertedLoads              0                       # Number of loads inserted to the mem dependence unit. (Count)
system.cpu.MemDepUnit__3.insertedStores             0                       # Number of stores inserted to the mem dependence unit. (Count)
system.cpu.MemDepUnit__3.conflictingLoads            0                       # Number of conflicting loads. (Count)
system.cpu.MemDepUnit__3.conflictingStores            0                       # Number of conflicting stores. (Count)
system.cpu.branchPred.lookups                  517720                       # Number of BP lookups (Count)
system.cpu.branchPred.condPredicted            285430                       # Number of conditional branches predicted (Count)
system.cpu.branchPred.condIncorrect             12342                       # Number of conditional branches incorrect (Count)
system.cpu.branchPred.BTBLookups               250550                       # Number of BTB lookups (Count)
system.cpu.branchPred.BTBHits                  250408                       # Number of BTB hits (Count)
system.cpu.branchPred.BTBHitRatio            0.999433                       # BTB Hit Ratio (Ratio)
system.cpu.branchPred.RASUsed                   52047                       # Number of times the RAS was used to get a target. (Count)
system.cpu.branchPred.RASIncorrect                 20                       # Number of incorrect RAS predictions. (Count)
system.cpu.branchPred.indirectLookups              13                       # Number of indirect predictor lookups. (Count)
system.cpu.branchPred.indirectHits                  2                       # Number of indirect target hits. (Count)
system.cpu.branchPred.indirectMisses               11                       # Number of indirect misses. (Count)
system.cpu.branchPred.indirectMispredicted            7                       # Number of mispredicted indirect branches. (Count)
system.cpu.commit.commitSquashedInsts           44515                       # The number of squashed insts skipped by commit (Count)
system.cpu.commit.commitNonSpecStalls               2                       # The number of times commit has been forced to stall to communicate backwards (Count)
system.cpu.commit.branchMispredicts             12280                       # The number of times a branch was mispredicted (Count)
system.cpu.commit.numCommittedDist::samples     59258055                       # Number of insts commited each cycle
system.cpu.commit.numCommittedDist::mean     0.051776                       # Number of insts commited each cycle
system.cpu.commit.numCommittedDist::stdev     0.306822                       # Number of insts commited each cycle
system.cpu.commit.numCommittedDist::underflows            0      0.00%      0.00% # Number of insts commited each cycle
system.cpu.commit.numCommittedDist::0        57011072     96.21%     96.21% # Number of insts commited each cycle
system.cpu.commit.numCommittedDist::1         1704530      2.88%     99.08% # Number of insts commited each cycle
system.cpu.commit.numCommittedDist::2          408197      0.69%     99.77% # Number of insts commited each cycle
system.cpu.commit.numCommittedDist::3           44887      0.08%     99.85% # Number of insts commited each cycle
system.cpu.commit.numCommittedDist::4           62127      0.10%     99.95% # Number of insts commited each cycle
system.cpu.commit.numCommittedDist::5            6263      0.01%     99.96% # Number of insts commited each cycle
system.cpu.commit.numCommittedDist::6           14461      0.02%     99.99% # Number of insts commited each cycle
system.cpu.commit.numCommittedDist::7            6150      0.01%    100.00% # Number of insts commited each cycle
system.cpu.commit.numCommittedDist::8             368      0.00%    100.00% # Number of insts commited each cycle
system.cpu.commit.numCommittedDist::overflows            0      0.00%    100.00% # Number of insts commited each cycle
system.cpu.commit.numCommittedDist::min_value            0                       # Number of insts commited each cycle
system.cpu.commit.numCommittedDist::max_value            8                       # Number of insts commited each cycle
system.cpu.commit.numCommittedDist::total     59258055                       # Number of insts commited each cycle
system.cpu.commit.instsCommitted              3043277                       # Number of instructions committed (Count)
system.cpu.commit.opsCommitted                3068168                       # Number of ops (including micro ops) committed (Count)
system.cpu.commit.memRefs                      547539                       # Number of memory references committed (Count)
system.cpu.commit.loads                        390998                       # Number of loads committed (Count)
system.cpu.commit.amos                              0                       # Number of atomic instructions committed (Count)
system.cpu.commit.membars                           0                       # Number of memory barriers committed (Count)
system.cpu.commit.branches                     504979                       # Number of branches committed (Count)
system.cpu.commit.vectorInstructions                0                       # Number of committed Vector instructions. (Count)
system.cpu.commit.floating                          0                       # Number of committed floating point instructions. (Count)
system.cpu.commit.integer                     2686177                       # Number of committed integer instructions. (Count)
system.cpu.commit.functionCalls                 49197                       # Number of function calls committed. (Count)
system.cpu.commit.committedInstType_0::No_OpClass      3068168      1.89%      1.89% # Class of committed instruction (Count)
system.cpu.commit.committedInstType_0::IntAlu      3068168      1.89%      3.77% # Class of committed instruction (Count)
system.cpu.commit.committedInstType_0::IntMult      3068168      1.89%      5.66% # Class of committed instruction (Count)
system.cpu.commit.committedInstType_0::IntDiv      3068168      1.89%      7.55% # Class of committed instruction (Count)
system.cpu.commit.committedInstType_0::FloatAdd      3068168      1.89%      9.43% # Class of committed instruction (Count)
system.cpu.commit.committedInstType_0::FloatCmp      3068168      1.89%     11.32% # Class of committed instruction (Count)
system.cpu.commit.committedInstType_0::FloatCvt      3068168      1.89%     13.21% # Class of committed instruction (Count)
system.cpu.commit.committedInstType_0::FloatMult      3068168      1.89%     15.09% # Class of committed instruction (Count)
system.cpu.commit.committedInstType_0::FloatMultAcc      3068168      1.89%     16.98% # Class of committed instruction (Count)
system.cpu.commit.committedInstType_0::FloatDiv      3068168      1.89%     18.87% # Class of committed instruction (Count)
system.cpu.commit.committedInstType_0::FloatMisc      3068168      1.89%     20.75% # Class of committed instruction (Count)
system.cpu.commit.committedInstType_0::FloatSqrt      3068168      1.89%     22.64% # Class of committed instruction (Count)
system.cpu.commit.committedInstType_0::SimdAdd      3068168      1.89%     24.53% # Class of committed instruction (Count)
system.cpu.commit.committedInstType_0::SimdAddAcc      3068168      1.89%     26.42% # Class of committed instruction (Count)
system.cpu.commit.committedInstType_0::SimdAlu      3068168      1.89%     28.30% # Class of committed instruction (Count)
system.cpu.commit.committedInstType_0::SimdCmp      3068168      1.89%     30.19% # Class of committed instruction (Count)
system.cpu.commit.committedInstType_0::SimdCvt      3068168      1.89%     32.08% # Class of committed instruction (Count)
system.cpu.commit.committedInstType_0::SimdMisc      3068168      1.89%     33.96% # Class of committed instruction (Count)
system.cpu.commit.committedInstType_0::SimdMult      3068168      1.89%     35.85% # Class of committed instruction (Count)
system.cpu.commit.committedInstType_0::SimdMultAcc      3068168      1.89%     37.74% # Class of committed instruction (Count)
system.cpu.commit.committedInstType_0::SimdShift      3068168      1.89%     39.62% # Class of committed instruction (Count)
system.cpu.commit.committedInstType_0::SimdShiftAcc      3068168      1.89%     41.51% # Class of committed instruction (Count)
system.cpu.commit.committedInstType_0::SimdDiv      3068168      1.89%     43.40% # Class of committed instruction (Count)
system.cpu.commit.committedInstType_0::SimdSqrt      3068168      1.89%     45.28% # Class of committed instruction (Count)
system.cpu.commit.committedInstType_0::SimdFloatAdd      3068168      1.89%     47.17% # Class of committed instruction (Count)
system.cpu.commit.committedInstType_0::SimdFloatAlu      3068168      1.89%     49.06% # Class of committed instruction (Count)
system.cpu.commit.committedInstType_0::SimdFloatCmp      3068168      1.89%     50.94% # Class of committed instruction (Count)
system.cpu.commit.committedInstType_0::SimdFloatCvt      3068168      1.89%     52.83% # Class of committed instruction (Count)
system.cpu.commit.committedInstType_0::SimdFloatDiv      3068168      1.89%     54.72% # Class of committed instruction (Count)
system.cpu.commit.committedInstType_0::SimdFloatMisc      3068168      1.89%     56.60% # Class of committed instruction (Count)
system.cpu.commit.committedInstType_0::SimdFloatMult      3068168      1.89%     58.49% # Class of committed instruction (Count)
system.cpu.commit.committedInstType_0::SimdFloatMultAcc      3068168      1.89%     60.38% # Class of committed instruction (Count)
system.cpu.commit.committedInstType_0::SimdFloatSqrt      3068168      1.89%     62.26% # Class of committed instruction (Count)
system.cpu.commit.committedInstType_0::SimdReduceAdd      3068168      1.89%     64.15% # Class of committed instruction (Count)
system.cpu.commit.committedInstType_0::SimdReduceAlu      3068168      1.89%     66.04% # Class of committed instruction (Count)
system.cpu.commit.committedInstType_0::SimdReduceCmp      3068168      1.89%     67.92% # Class of committed instruction (Count)
system.cpu.commit.committedInstType_0::SimdFloatReduceAdd      3068168      1.89%     69.81% # Class of committed instruction (Count)
system.cpu.commit.committedInstType_0::SimdFloatReduceCmp      3068168      1.89%     71.70% # Class of committed instruction (Count)
system.cpu.commit.committedInstType_0::SimdAes      3068168      1.89%     73.58% # Class of committed instruction (Count)
system.cpu.commit.committedInstType_0::SimdAesMix      3068168      1.89%     75.47% # Class of committed instruction (Count)
system.cpu.commit.committedInstType_0::SimdSha1Hash      3068168      1.89%     77.36% # Class of committed instruction (Count)
system.cpu.commit.committedInstType_0::SimdSha1Hash2      3068168      1.89%     79.25% # Class of committed instruction (Count)
system.cpu.commit.committedInstType_0::SimdSha256Hash      3068168      1.89%     81.13% # Class of committed instruction (Count)
system.cpu.commit.committedInstType_0::SimdSha256Hash2      3068168      1.89%     83.02% # Class of committed instruction (Count)
system.cpu.commit.committedInstType_0::SimdShaSigma2      3068168      1.89%     84.91% # Class of committed instruction (Count)
system.cpu.commit.committedInstType_0::SimdShaSigma3      3068168      1.89%     86.79% # Class of committed instruction (Count)
system.cpu.commit.committedInstType_0::SimdPredAlu      3068168      1.89%     88.68% # Class of committed instruction (Count)
system.cpu.commit.committedInstType_0::MemRead      3068168      1.89%     90.57% # Class of committed instruction (Count)
system.cpu.commit.committedInstType_0::MemWrite      3068168      1.89%     92.45% # Class of committed instruction (Count)
system.cpu.commit.committedInstType_0::FloatMemRead      3068168      1.89%     94.34% # Class of committed instruction (Count)
system.cpu.commit.committedInstType_0::FloatMemWrite      3068168      1.89%     96.23% # Class of committed instruction (Count)
system.cpu.commit.committedInstType_0::IprAccess      3068168      1.89%     98.11% # Class of committed instruction (Count)
system.cpu.commit.committedInstType_0::InstPrefetch      3068168      1.89%    100.00% # Class of committed instruction (Count)
system.cpu.commit.committedInstType_0::total    162612904                       # Class of committed instruction (Count)
system.cpu.commit.commitEligibleSamples           368                       # number cycles where commit BW limit reached (Cycle)
system.cpu.dcache.blockedCycles::no_mshrs           42                       # number of cycles access was blocked (Cycle)
system.cpu.dcache.blockedCycles::no_targets           42                       # number of cycles access was blocked (Cycle)
system.cpu.dcache.blockedCauses::no_mshrs           34                       # number of times access was blocked (Count)
system.cpu.dcache.blockedCauses::no_targets           34                       # number of times access was blocked (Count)
system.cpu.dcache.avgBlocked::no_mshrs       1.235294                       # average number of cycles each access was blocked ((Cycle/Count))
system.cpu.dcache.avgBlocked::no_targets     1.235294                       # average number of cycles each access was blocked ((Cycle/Count))
system.cpu.dcache.overallMshrUncacheable::writebacks       547532                       # number of overall MSHR uncacheable misses (Count)
system.cpu.dcache.overallMshrUncacheable::functional       547532                       # number of overall MSHR uncacheable misses (Count)
system.cpu.dcache.overallMshrUncacheable::interrupt       547532                       # number of overall MSHR uncacheable misses (Count)
system.cpu.dcache.overallMshrUncacheable::cpu.mmu.dtb_walker       547532                       # number of overall MSHR uncacheable misses (Count)
system.cpu.dcache.overallMshrUncacheable::cpu.mmu.itb_walker       547532                       # number of overall MSHR uncacheable misses (Count)
system.cpu.dcache.overallMshrUncacheable::cpu.mmu.stage2_dtb_walker       547532                       # number of overall MSHR uncacheable misses (Count)
system.cpu.dcache.overallMshrUncacheable::cpu.mmu.stage2_itb_walker       547532                       # number of overall MSHR uncacheable misses (Count)
system.cpu.dcache.overallMshrUncacheable::cpu.inst       547532                       # number of overall MSHR uncacheable misses (Count)
system.cpu.dcache.overallMshrUncacheable::cpu.data       547532                       # number of overall MSHR uncacheable misses (Count)
system.cpu.dcache.overallMshrUncacheable::pci_ide       547532                       # number of overall MSHR uncacheable misses (Count)
system.cpu.dcache.overallMshrUncacheable::qkv_clstr.dma       547532                       # number of overall MSHR uncacheable misses (Count)
system.cpu.dcache.overallMshrUncacheable::qkv_clstr.qkv.system.qkv_clstr.qkv       547532                       # number of overall MSHR uncacheable misses (Count)
system.cpu.dcache.overallMshrUncacheable::qkv_clstr.top.system.qkv_clstr.top       547532                       # number of overall MSHR uncacheable misses (Count)
system.cpu.dcache.overallMshrUncacheable::total      7117916                       # number of overall MSHR uncacheable misses (Count)
system.cpu.dcache.overallMshrUncacheableLatency::writebacks  28051689500                       # number of overall MSHR uncacheable ticks (Tick)
system.cpu.dcache.overallMshrUncacheableLatency::functional  28051689500                       # number of overall MSHR uncacheable ticks (Tick)
system.cpu.dcache.overallMshrUncacheableLatency::interrupt  28051689500                       # number of overall MSHR uncacheable ticks (Tick)
system.cpu.dcache.overallMshrUncacheableLatency::cpu.mmu.dtb_walker  28051689500                       # number of overall MSHR uncacheable ticks (Tick)
system.cpu.dcache.overallMshrUncacheableLatency::cpu.mmu.itb_walker  28051689500                       # number of overall MSHR uncacheable ticks (Tick)
system.cpu.dcache.overallMshrUncacheableLatency::cpu.mmu.stage2_dtb_walker  28051689500                       # number of overall MSHR uncacheable ticks (Tick)
system.cpu.dcache.overallMshrUncacheableLatency::cpu.mmu.stage2_itb_walker  28051689500                       # number of overall MSHR uncacheable ticks (Tick)
system.cpu.dcache.overallMshrUncacheableLatency::cpu.inst  28051689500                       # number of overall MSHR uncacheable ticks (Tick)
system.cpu.dcache.overallMshrUncacheableLatency::cpu.data  28051689500                       # number of overall MSHR uncacheable ticks (Tick)
system.cpu.dcache.overallMshrUncacheableLatency::pci_ide  28051689500                       # number of overall MSHR uncacheable ticks (Tick)
system.cpu.dcache.overallMshrUncacheableLatency::qkv_clstr.dma  28051689500                       # number of overall MSHR uncacheable ticks (Tick)
system.cpu.dcache.overallMshrUncacheableLatency::qkv_clstr.qkv.system.qkv_clstr.qkv  28051689500                       # number of overall MSHR uncacheable ticks (Tick)
system.cpu.dcache.overallMshrUncacheableLatency::qkv_clstr.top.system.qkv_clstr.top  28051689500                       # number of overall MSHR uncacheable ticks (Tick)
system.cpu.dcache.overallMshrUncacheableLatency::total 364671963500                       # number of overall MSHR uncacheable ticks (Tick)
system.cpu.dcache.overallAvgMshrUncacheableLatency::writebacks 51232.968119                       # average overall mshr uncacheable latency ((Cycle/Count))
system.cpu.dcache.overallAvgMshrUncacheableLatency::functional 51232.968119                       # average overall mshr uncacheable latency ((Cycle/Count))
system.cpu.dcache.overallAvgMshrUncacheableLatency::interrupt 51232.968119                       # average overall mshr uncacheable latency ((Cycle/Count))
system.cpu.dcache.overallAvgMshrUncacheableLatency::cpu.mmu.dtb_walker 51232.968119                       # average overall mshr uncacheable latency ((Cycle/Count))
system.cpu.dcache.overallAvgMshrUncacheableLatency::cpu.mmu.itb_walker 51232.968119                       # average overall mshr uncacheable latency ((Cycle/Count))
system.cpu.dcache.overallAvgMshrUncacheableLatency::cpu.mmu.stage2_dtb_walker 51232.968119                       # average overall mshr uncacheable latency ((Cycle/Count))
system.cpu.dcache.overallAvgMshrUncacheableLatency::cpu.mmu.stage2_itb_walker 51232.968119                       # average overall mshr uncacheable latency ((Cycle/Count))
system.cpu.dcache.overallAvgMshrUncacheableLatency::cpu.inst 51232.968119                       # average overall mshr uncacheable latency ((Cycle/Count))
system.cpu.dcache.overallAvgMshrUncacheableLatency::cpu.data 51232.968119                       # average overall mshr uncacheable latency ((Cycle/Count))
system.cpu.dcache.overallAvgMshrUncacheableLatency::pci_ide 51232.968119                       # average overall mshr uncacheable latency ((Cycle/Count))
system.cpu.dcache.overallAvgMshrUncacheableLatency::qkv_clstr.dma 51232.968119                       # average overall mshr uncacheable latency ((Cycle/Count))
system.cpu.dcache.overallAvgMshrUncacheableLatency::qkv_clstr.qkv.system.qkv_clstr.qkv 51232.968119                       # average overall mshr uncacheable latency ((Cycle/Count))
system.cpu.dcache.overallAvgMshrUncacheableLatency::qkv_clstr.top.system.qkv_clstr.top 51232.968119                       # average overall mshr uncacheable latency ((Cycle/Count))
system.cpu.dcache.overallAvgMshrUncacheableLatency::total 51232.968119                       # average overall mshr uncacheable latency ((Cycle/Count))
system.cpu.dcache.replacements                      0                       # number of replacements (Count)
system.cpu.dcache.ReadReq.mshrUncacheable::writebacks       390997                       # number of ReadReq MSHR uncacheable (Count)
system.cpu.dcache.ReadReq.mshrUncacheable::functional       390997                       # number of ReadReq MSHR uncacheable (Count)
system.cpu.dcache.ReadReq.mshrUncacheable::interrupt       390997                       # number of ReadReq MSHR uncacheable (Count)
system.cpu.dcache.ReadReq.mshrUncacheable::cpu.mmu.dtb_walker       390997                       # number of ReadReq MSHR uncacheable (Count)
system.cpu.dcache.ReadReq.mshrUncacheable::cpu.mmu.itb_walker       390997                       # number of ReadReq MSHR uncacheable (Count)
system.cpu.dcache.ReadReq.mshrUncacheable::cpu.mmu.stage2_dtb_walker       390997                       # number of ReadReq MSHR uncacheable (Count)
system.cpu.dcache.ReadReq.mshrUncacheable::cpu.mmu.stage2_itb_walker       390997                       # number of ReadReq MSHR uncacheable (Count)
system.cpu.dcache.ReadReq.mshrUncacheable::cpu.inst       390997                       # number of ReadReq MSHR uncacheable (Count)
system.cpu.dcache.ReadReq.mshrUncacheable::cpu.data       390997                       # number of ReadReq MSHR uncacheable (Count)
system.cpu.dcache.ReadReq.mshrUncacheable::pci_ide       390997                       # number of ReadReq MSHR uncacheable (Count)
system.cpu.dcache.ReadReq.mshrUncacheable::qkv_clstr.dma       390997                       # number of ReadReq MSHR uncacheable (Count)
system.cpu.dcache.ReadReq.mshrUncacheable::qkv_clstr.qkv.system.qkv_clstr.qkv       390997                       # number of ReadReq MSHR uncacheable (Count)
system.cpu.dcache.ReadReq.mshrUncacheable::qkv_clstr.top.system.qkv_clstr.top       390997                       # number of ReadReq MSHR uncacheable (Count)
system.cpu.dcache.ReadReq.mshrUncacheable::total      5082961                       # number of ReadReq MSHR uncacheable (Count)
system.cpu.dcache.ReadReq.mshrUncacheableLatency::writebacks  28051689500                       # number of ReadReq MSHR uncacheable ticks (Tick)
system.cpu.dcache.ReadReq.mshrUncacheableLatency::functional  28051689500                       # number of ReadReq MSHR uncacheable ticks (Tick)
system.cpu.dcache.ReadReq.mshrUncacheableLatency::interrupt  28051689500                       # number of ReadReq MSHR uncacheable ticks (Tick)
system.cpu.dcache.ReadReq.mshrUncacheableLatency::cpu.mmu.dtb_walker  28051689500                       # number of ReadReq MSHR uncacheable ticks (Tick)
system.cpu.dcache.ReadReq.mshrUncacheableLatency::cpu.mmu.itb_walker  28051689500                       # number of ReadReq MSHR uncacheable ticks (Tick)
system.cpu.dcache.ReadReq.mshrUncacheableLatency::cpu.mmu.stage2_dtb_walker  28051689500                       # number of ReadReq MSHR uncacheable ticks (Tick)
system.cpu.dcache.ReadReq.mshrUncacheableLatency::cpu.mmu.stage2_itb_walker  28051689500                       # number of ReadReq MSHR uncacheable ticks (Tick)
system.cpu.dcache.ReadReq.mshrUncacheableLatency::cpu.inst  28051689500                       # number of ReadReq MSHR uncacheable ticks (Tick)
system.cpu.dcache.ReadReq.mshrUncacheableLatency::cpu.data  28051689500                       # number of ReadReq MSHR uncacheable ticks (Tick)
system.cpu.dcache.ReadReq.mshrUncacheableLatency::pci_ide  28051689500                       # number of ReadReq MSHR uncacheable ticks (Tick)
system.cpu.dcache.ReadReq.mshrUncacheableLatency::qkv_clstr.dma  28051689500                       # number of ReadReq MSHR uncacheable ticks (Tick)
system.cpu.dcache.ReadReq.mshrUncacheableLatency::qkv_clstr.qkv.system.qkv_clstr.qkv  28051689500                       # number of ReadReq MSHR uncacheable ticks (Tick)
system.cpu.dcache.ReadReq.mshrUncacheableLatency::qkv_clstr.top.system.qkv_clstr.top  28051689500                       # number of ReadReq MSHR uncacheable ticks (Tick)
system.cpu.dcache.ReadReq.mshrUncacheableLatency::total 364671963500                       # number of ReadReq MSHR uncacheable ticks (Tick)
system.cpu.dcache.ReadReq.avgMshrUncacheableLatency::writebacks 71744.001872                       # average ReadReq mshr uncacheable latency ((Tick/Count))
system.cpu.dcache.ReadReq.avgMshrUncacheableLatency::functional 71744.001872                       # average ReadReq mshr uncacheable latency ((Tick/Count))
system.cpu.dcache.ReadReq.avgMshrUncacheableLatency::interrupt 71744.001872                       # average ReadReq mshr uncacheable latency ((Tick/Count))
system.cpu.dcache.ReadReq.avgMshrUncacheableLatency::cpu.mmu.dtb_walker 71744.001872                       # average ReadReq mshr uncacheable latency ((Tick/Count))
system.cpu.dcache.ReadReq.avgMshrUncacheableLatency::cpu.mmu.itb_walker 71744.001872                       # average ReadReq mshr uncacheable latency ((Tick/Count))
system.cpu.dcache.ReadReq.avgMshrUncacheableLatency::cpu.mmu.stage2_dtb_walker 71744.001872                       # average ReadReq mshr uncacheable latency ((Tick/Count))
system.cpu.dcache.ReadReq.avgMshrUncacheableLatency::cpu.mmu.stage2_itb_walker 71744.001872                       # average ReadReq mshr uncacheable latency ((Tick/Count))
system.cpu.dcache.ReadReq.avgMshrUncacheableLatency::cpu.inst 71744.001872                       # average ReadReq mshr uncacheable latency ((Tick/Count))
system.cpu.dcache.ReadReq.avgMshrUncacheableLatency::cpu.data 71744.001872                       # average ReadReq mshr uncacheable latency ((Tick/Count))
system.cpu.dcache.ReadReq.avgMshrUncacheableLatency::pci_ide 71744.001872                       # average ReadReq mshr uncacheable latency ((Tick/Count))
system.cpu.dcache.ReadReq.avgMshrUncacheableLatency::qkv_clstr.dma 71744.001872                       # average ReadReq mshr uncacheable latency ((Tick/Count))
system.cpu.dcache.ReadReq.avgMshrUncacheableLatency::qkv_clstr.qkv.system.qkv_clstr.qkv 71744.001872                       # average ReadReq mshr uncacheable latency ((Tick/Count))
system.cpu.dcache.ReadReq.avgMshrUncacheableLatency::qkv_clstr.top.system.qkv_clstr.top 71744.001872                       # average ReadReq mshr uncacheable latency ((Tick/Count))
system.cpu.dcache.ReadReq.avgMshrUncacheableLatency::total 71744.001872                       # average ReadReq mshr uncacheable latency ((Tick/Count))
system.cpu.dcache.WriteReq.mshrUncacheable::writebacks       156535                       # number of WriteReq MSHR uncacheable (Count)
system.cpu.dcache.WriteReq.mshrUncacheable::functional       156535                       # number of WriteReq MSHR uncacheable (Count)
system.cpu.dcache.WriteReq.mshrUncacheable::interrupt       156535                       # number of WriteReq MSHR uncacheable (Count)
system.cpu.dcache.WriteReq.mshrUncacheable::cpu.mmu.dtb_walker       156535                       # number of WriteReq MSHR uncacheable (Count)
system.cpu.dcache.WriteReq.mshrUncacheable::cpu.mmu.itb_walker       156535                       # number of WriteReq MSHR uncacheable (Count)
system.cpu.dcache.WriteReq.mshrUncacheable::cpu.mmu.stage2_dtb_walker       156535                       # number of WriteReq MSHR uncacheable (Count)
system.cpu.dcache.WriteReq.mshrUncacheable::cpu.mmu.stage2_itb_walker       156535                       # number of WriteReq MSHR uncacheable (Count)
system.cpu.dcache.WriteReq.mshrUncacheable::cpu.inst       156535                       # number of WriteReq MSHR uncacheable (Count)
system.cpu.dcache.WriteReq.mshrUncacheable::cpu.data       156535                       # number of WriteReq MSHR uncacheable (Count)
system.cpu.dcache.WriteReq.mshrUncacheable::pci_ide       156535                       # number of WriteReq MSHR uncacheable (Count)
system.cpu.dcache.WriteReq.mshrUncacheable::qkv_clstr.dma       156535                       # number of WriteReq MSHR uncacheable (Count)
system.cpu.dcache.WriteReq.mshrUncacheable::qkv_clstr.qkv.system.qkv_clstr.qkv       156535                       # number of WriteReq MSHR uncacheable (Count)
system.cpu.dcache.WriteReq.mshrUncacheable::qkv_clstr.top.system.qkv_clstr.top       156535                       # number of WriteReq MSHR uncacheable (Count)
system.cpu.dcache.WriteReq.mshrUncacheable::total      2034955                       # number of WriteReq MSHR uncacheable (Count)
system.cpu.dcache.power_state.pwrStateResidencyTicks::UNDEFINED  51231487000                       # Cumulative time (in ticks) in various power states (Tick)
system.cpu.dcache.power_state.pwrStateResidencyTicks::ON  51231487000                       # Cumulative time (in ticks) in various power states (Tick)
system.cpu.dcache.power_state.pwrStateResidencyTicks::CLK_GATED  51231487000                       # Cumulative time (in ticks) in various power states (Tick)
system.cpu.dcache.power_state.pwrStateResidencyTicks::SRAM_RETENTION  51231487000                       # Cumulative time (in ticks) in various power states (Tick)
system.cpu.dcache.power_state.pwrStateResidencyTicks::OFF  51231487000                       # Cumulative time (in ticks) in various power states (Tick)
system.cpu.dcache.tags.tagsInUse                    0                       # Average ticks per tags in use ((Tick/Count))
system.cpu.dcache.tags.totalRefs                    0                       # Total number of references to valid blocks. (Count)
system.cpu.dcache.tags.sampledRefs                  0                       # Sample count of references to valid blocks. (Count)
system.cpu.dcache.tags.avgRefs                    nan                       # Average number of references to valid blocks. ((Count/Count))
system.cpu.dcache.tags.warmupTick                   0                       # The tick when the warmup percentage was hit. (Tick)
system.cpu.dcache.tags.tagAccesses                  0                       # Number of tag accesses (Count)
system.cpu.dcache.tags.dataAccesses                 0                       # Number of data accesses (Count)
system.cpu.dcache.tags.power_state.pwrStateResidencyTicks::UNDEFINED  51231487000                       # Cumulative time (in ticks) in various power states (Tick)
system.cpu.dcache.tags.power_state.pwrStateResidencyTicks::ON  51231487000                       # Cumulative time (in ticks) in various power states (Tick)
system.cpu.dcache.tags.power_state.pwrStateResidencyTicks::CLK_GATED  51231487000                       # Cumulative time (in ticks) in various power states (Tick)
system.cpu.dcache.tags.power_state.pwrStateResidencyTicks::SRAM_RETENTION  51231487000                       # Cumulative time (in ticks) in various power states (Tick)
system.cpu.dcache.tags.power_state.pwrStateResidencyTicks::OFF  51231487000                       # Cumulative time (in ticks) in various power states (Tick)
system.cpu.decode.idleCycles                  5300033                       # Number of cycles decode is idle (Cycle)
system.cpu.decode.blockedCycles              53444215                       # Number of cycles decode is blocked (Cycle)
system.cpu.decode.runCycles                    323276                       # Number of cycles decode is running (Cycle)
system.cpu.decode.unblockCycles                191151                       # Number of cycles decode is unblocking (Cycle)
system.cpu.decode.squashCycles                  12282                       # Number of cycles decode is squashing (Cycle)
system.cpu.decode.branchResolved               249833                       # Number of times decode resolved a branch (Count)
system.cpu.decode.branchMispred                    62                       # Number of times decode detected a branch misprediction (Count)
system.cpu.decode.decodedInsts                3112851                       # Number of instructions handled by decode (Count)
system.cpu.decode.squashedInsts                   237                       # Number of squashed instructions handled by decode (Count)
system.cpu.fetch.icacheStallCycles           22437157                       # Number of cycles fetch is stalled on an Icache miss (Cycle)
system.cpu.fetch.insts                        3088971                       # Number of instructions fetch has processed (Count)
system.cpu.fetch.branches                      517720                       # Number of branches that fetch encountered (Count)
system.cpu.fetch.predictedBranches             302457                       # Number of branches that fetch has predicted taken (Count)
system.cpu.fetch.cycles                      36816772                       # Number of cycles fetch has run and was not squashing or blocked (Cycle)
system.cpu.fetch.squashCycles                   24688                       # Number of cycles fetch has spent squashing (Cycle)
system.cpu.fetch.miscStallCycles                 4684                       # Number of cycles fetch has spent waiting on interrupts, or bad addresses, or out of MSHRs (Cycle)
system.cpu.fetch.cacheLines                    496944                       # Number of cache lines fetched (Count)
system.cpu.fetch.icacheSquashes                 12306                       # Number of outstanding Icache misses that were squashed (Count)
system.cpu.fetch.nisnDist::samples           59270957                       # Number of instructions fetched each cycle (Total)
system.cpu.fetch.nisnDist::mean              0.052543                       # Number of instructions fetched each cycle (Total)
system.cpu.fetch.nisnDist::stdev             0.546735                       # Number of instructions fetched each cycle (Total)
system.cpu.fetch.nisnDist::underflows               0      0.00%      0.00% # Number of instructions fetched each cycle (Total)
system.cpu.fetch.nisnDist::0                 58628196     98.92%     98.92% # Number of instructions fetched each cycle (Total)
system.cpu.fetch.nisnDist::1                    25312      0.04%     98.96% # Number of instructions fetched each cycle (Total)
system.cpu.fetch.nisnDist::2                    66715      0.11%     99.07% # Number of instructions fetched each cycle (Total)
system.cpu.fetch.nisnDist::3                   112887      0.19%     99.26% # Number of instructions fetched each cycle (Total)
system.cpu.fetch.nisnDist::4                    70651      0.12%     99.38% # Number of instructions fetched each cycle (Total)
system.cpu.fetch.nisnDist::5                   161129      0.27%     99.65% # Number of instructions fetched each cycle (Total)
system.cpu.fetch.nisnDist::6                    12380      0.02%     99.67% # Number of instructions fetched each cycle (Total)
system.cpu.fetch.nisnDist::7                    95172      0.16%     99.83% # Number of instructions fetched each cycle (Total)
system.cpu.fetch.nisnDist::8                    98515      0.17%    100.00% # Number of instructions fetched each cycle (Total)
system.cpu.fetch.nisnDist::overflows                0      0.00%    100.00% # Number of instructions fetched each cycle (Total)
system.cpu.fetch.nisnDist::min_value                0                       # Number of instructions fetched each cycle (Total)
system.cpu.fetch.nisnDist::max_value                8                       # Number of instructions fetched each cycle (Total)
system.cpu.fetch.nisnDist::total             59270957                       # Number of instructions fetched each cycle (Total)
system.cpu.fetch.branchRate                  0.005053                       # Number of branch fetches per cycle (Ratio)
system.cpu.fetch.rate                        0.030148                       # Number of inst fetches per cycle ((Count/Cycle))
system.cpu.icache.blockedCycles::no_mshrs            0                       # number of cycles access was blocked (Cycle)
system.cpu.icache.blockedCycles::no_targets            0                       # number of cycles access was blocked (Cycle)
system.cpu.icache.blockedCauses::no_mshrs            0                       # number of times access was blocked (Count)
system.cpu.icache.blockedCauses::no_targets            0                       # number of times access was blocked (Count)
system.cpu.icache.avgBlocked::no_mshrs            nan                       # average number of cycles each access was blocked ((Cycle/Count))
system.cpu.icache.avgBlocked::no_targets          nan                       # average number of cycles each access was blocked ((Cycle/Count))
system.cpu.icache.overallMshrUncacheable::writebacks       496944                       # number of overall MSHR uncacheable misses (Count)
system.cpu.icache.overallMshrUncacheable::functional       496944                       # number of overall MSHR uncacheable misses (Count)
system.cpu.icache.overallMshrUncacheable::interrupt       496944                       # number of overall MSHR uncacheable misses (Count)
system.cpu.icache.overallMshrUncacheable::cpu.mmu.dtb_walker       496944                       # number of overall MSHR uncacheable misses (Count)
system.cpu.icache.overallMshrUncacheable::cpu.mmu.itb_walker       496944                       # number of overall MSHR uncacheable misses (Count)
system.cpu.icache.overallMshrUncacheable::cpu.mmu.stage2_dtb_walker       496944                       # number of overall MSHR uncacheable misses (Count)
system.cpu.icache.overallMshrUncacheable::cpu.mmu.stage2_itb_walker       496944                       # number of overall MSHR uncacheable misses (Count)
system.cpu.icache.overallMshrUncacheable::cpu.inst       496944                       # number of overall MSHR uncacheable misses (Count)
system.cpu.icache.overallMshrUncacheable::cpu.data       496944                       # number of overall MSHR uncacheable misses (Count)
system.cpu.icache.overallMshrUncacheable::pci_ide       496944                       # number of overall MSHR uncacheable misses (Count)
system.cpu.icache.overallMshrUncacheable::qkv_clstr.dma       496944                       # number of overall MSHR uncacheable misses (Count)
system.cpu.icache.overallMshrUncacheable::qkv_clstr.qkv.system.qkv_clstr.qkv       496944                       # number of overall MSHR uncacheable misses (Count)
system.cpu.icache.overallMshrUncacheable::qkv_clstr.top.system.qkv_clstr.top       496944                       # number of overall MSHR uncacheable misses (Count)
system.cpu.icache.overallMshrUncacheable::total      6460272                       # number of overall MSHR uncacheable misses (Count)
system.cpu.icache.overallMshrUncacheableLatency::writebacks  32847863000                       # number of overall MSHR uncacheable ticks (Tick)
system.cpu.icache.overallMshrUncacheableLatency::functional  32847863000                       # number of overall MSHR uncacheable ticks (Tick)
system.cpu.icache.overallMshrUncacheableLatency::interrupt  32847863000                       # number of overall MSHR uncacheable ticks (Tick)
system.cpu.icache.overallMshrUncacheableLatency::cpu.mmu.dtb_walker  32847863000                       # number of overall MSHR uncacheable ticks (Tick)
system.cpu.icache.overallMshrUncacheableLatency::cpu.mmu.itb_walker  32847863000                       # number of overall MSHR uncacheable ticks (Tick)
system.cpu.icache.overallMshrUncacheableLatency::cpu.mmu.stage2_dtb_walker  32847863000                       # number of overall MSHR uncacheable ticks (Tick)
system.cpu.icache.overallMshrUncacheableLatency::cpu.mmu.stage2_itb_walker  32847863000                       # number of overall MSHR uncacheable ticks (Tick)
system.cpu.icache.overallMshrUncacheableLatency::cpu.inst  32847863000                       # number of overall MSHR uncacheable ticks (Tick)
system.cpu.icache.overallMshrUncacheableLatency::cpu.data  32847863000                       # number of overall MSHR uncacheable ticks (Tick)
system.cpu.icache.overallMshrUncacheableLatency::pci_ide  32847863000                       # number of overall MSHR uncacheable ticks (Tick)
system.cpu.icache.overallMshrUncacheableLatency::qkv_clstr.dma  32847863000                       # number of overall MSHR uncacheable ticks (Tick)
system.cpu.icache.overallMshrUncacheableLatency::qkv_clstr.qkv.system.qkv_clstr.qkv  32847863000                       # number of overall MSHR uncacheable ticks (Tick)
system.cpu.icache.overallMshrUncacheableLatency::qkv_clstr.top.system.qkv_clstr.top  32847863000                       # number of overall MSHR uncacheable ticks (Tick)
system.cpu.icache.overallMshrUncacheableLatency::total 427022219000                       # number of overall MSHR uncacheable ticks (Tick)
system.cpu.icache.overallAvgMshrUncacheableLatency::writebacks 66099.727535                       # average overall mshr uncacheable latency ((Cycle/Count))
system.cpu.icache.overallAvgMshrUncacheableLatency::functional 66099.727535                       # average overall mshr uncacheable latency ((Cycle/Count))
system.cpu.icache.overallAvgMshrUncacheableLatency::interrupt 66099.727535                       # average overall mshr uncacheable latency ((Cycle/Count))
system.cpu.icache.overallAvgMshrUncacheableLatency::cpu.mmu.dtb_walker 66099.727535                       # average overall mshr uncacheable latency ((Cycle/Count))
system.cpu.icache.overallAvgMshrUncacheableLatency::cpu.mmu.itb_walker 66099.727535                       # average overall mshr uncacheable latency ((Cycle/Count))
system.cpu.icache.overallAvgMshrUncacheableLatency::cpu.mmu.stage2_dtb_walker 66099.727535                       # average overall mshr uncacheable latency ((Cycle/Count))
system.cpu.icache.overallAvgMshrUncacheableLatency::cpu.mmu.stage2_itb_walker 66099.727535                       # average overall mshr uncacheable latency ((Cycle/Count))
system.cpu.icache.overallAvgMshrUncacheableLatency::cpu.inst 66099.727535                       # average overall mshr uncacheable latency ((Cycle/Count))
system.cpu.icache.overallAvgMshrUncacheableLatency::cpu.data 66099.727535                       # average overall mshr uncacheable latency ((Cycle/Count))
system.cpu.icache.overallAvgMshrUncacheableLatency::pci_ide 66099.727535                       # average overall mshr uncacheable latency ((Cycle/Count))
system.cpu.icache.overallAvgMshrUncacheableLatency::qkv_clstr.dma 66099.727535                       # average overall mshr uncacheable latency ((Cycle/Count))
system.cpu.icache.overallAvgMshrUncacheableLatency::qkv_clstr.qkv.system.qkv_clstr.qkv 66099.727535                       # average overall mshr uncacheable latency ((Cycle/Count))
system.cpu.icache.overallAvgMshrUncacheableLatency::qkv_clstr.top.system.qkv_clstr.top 66099.727535                       # average overall mshr uncacheable latency ((Cycle/Count))
system.cpu.icache.overallAvgMshrUncacheableLatency::total 66099.727535                       # average overall mshr uncacheable latency ((Cycle/Count))
system.cpu.icache.replacements                      0                       # number of replacements (Count)
system.cpu.icache.ReadReq.mshrUncacheable::writebacks       496944                       # number of ReadReq MSHR uncacheable (Count)
system.cpu.icache.ReadReq.mshrUncacheable::functional       496944                       # number of ReadReq MSHR uncacheable (Count)
system.cpu.icache.ReadReq.mshrUncacheable::interrupt       496944                       # number of ReadReq MSHR uncacheable (Count)
system.cpu.icache.ReadReq.mshrUncacheable::cpu.mmu.dtb_walker       496944                       # number of ReadReq MSHR uncacheable (Count)
system.cpu.icache.ReadReq.mshrUncacheable::cpu.mmu.itb_walker       496944                       # number of ReadReq MSHR uncacheable (Count)
system.cpu.icache.ReadReq.mshrUncacheable::cpu.mmu.stage2_dtb_walker       496944                       # number of ReadReq MSHR uncacheable (Count)
system.cpu.icache.ReadReq.mshrUncacheable::cpu.mmu.stage2_itb_walker       496944                       # number of ReadReq MSHR uncacheable (Count)
system.cpu.icache.ReadReq.mshrUncacheable::cpu.inst       496944                       # number of ReadReq MSHR uncacheable (Count)
system.cpu.icache.ReadReq.mshrUncacheable::cpu.data       496944                       # number of ReadReq MSHR uncacheable (Count)
system.cpu.icache.ReadReq.mshrUncacheable::pci_ide       496944                       # number of ReadReq MSHR uncacheable (Count)
system.cpu.icache.ReadReq.mshrUncacheable::qkv_clstr.dma       496944                       # number of ReadReq MSHR uncacheable (Count)
system.cpu.icache.ReadReq.mshrUncacheable::qkv_clstr.qkv.system.qkv_clstr.qkv       496944                       # number of ReadReq MSHR uncacheable (Count)
system.cpu.icache.ReadReq.mshrUncacheable::qkv_clstr.top.system.qkv_clstr.top       496944                       # number of ReadReq MSHR uncacheable (Count)
system.cpu.icache.ReadReq.mshrUncacheable::total      6460272                       # number of ReadReq MSHR uncacheable (Count)
system.cpu.icache.ReadReq.mshrUncacheableLatency::writebacks  32847863000                       # number of ReadReq MSHR uncacheable ticks (Tick)
system.cpu.icache.ReadReq.mshrUncacheableLatency::functional  32847863000                       # number of ReadReq MSHR uncacheable ticks (Tick)
system.cpu.icache.ReadReq.mshrUncacheableLatency::interrupt  32847863000                       # number of ReadReq MSHR uncacheable ticks (Tick)
system.cpu.icache.ReadReq.mshrUncacheableLatency::cpu.mmu.dtb_walker  32847863000                       # number of ReadReq MSHR uncacheable ticks (Tick)
system.cpu.icache.ReadReq.mshrUncacheableLatency::cpu.mmu.itb_walker  32847863000                       # number of ReadReq MSHR uncacheable ticks (Tick)
system.cpu.icache.ReadReq.mshrUncacheableLatency::cpu.mmu.stage2_dtb_walker  32847863000                       # number of ReadReq MSHR uncacheable ticks (Tick)
system.cpu.icache.ReadReq.mshrUncacheableLatency::cpu.mmu.stage2_itb_walker  32847863000                       # number of ReadReq MSHR uncacheable ticks (Tick)
system.cpu.icache.ReadReq.mshrUncacheableLatency::cpu.inst  32847863000                       # number of ReadReq MSHR uncacheable ticks (Tick)
system.cpu.icache.ReadReq.mshrUncacheableLatency::cpu.data  32847863000                       # number of ReadReq MSHR uncacheable ticks (Tick)
system.cpu.icache.ReadReq.mshrUncacheableLatency::pci_ide  32847863000                       # number of ReadReq MSHR uncacheable ticks (Tick)
system.cpu.icache.ReadReq.mshrUncacheableLatency::qkv_clstr.dma  32847863000                       # number of ReadReq MSHR uncacheable ticks (Tick)
system.cpu.icache.ReadReq.mshrUncacheableLatency::qkv_clstr.qkv.system.qkv_clstr.qkv  32847863000                       # number of ReadReq MSHR uncacheable ticks (Tick)
system.cpu.icache.ReadReq.mshrUncacheableLatency::qkv_clstr.top.system.qkv_clstr.top  32847863000                       # number of ReadReq MSHR uncacheable ticks (Tick)
system.cpu.icache.ReadReq.mshrUncacheableLatency::total 427022219000                       # number of ReadReq MSHR uncacheable ticks (Tick)
system.cpu.icache.ReadReq.avgMshrUncacheableLatency::writebacks 66099.727535                       # average ReadReq mshr uncacheable latency ((Tick/Count))
system.cpu.icache.ReadReq.avgMshrUncacheableLatency::functional 66099.727535                       # average ReadReq mshr uncacheable latency ((Tick/Count))
system.cpu.icache.ReadReq.avgMshrUncacheableLatency::interrupt 66099.727535                       # average ReadReq mshr uncacheable latency ((Tick/Count))
system.cpu.icache.ReadReq.avgMshrUncacheableLatency::cpu.mmu.dtb_walker 66099.727535                       # average ReadReq mshr uncacheable latency ((Tick/Count))
system.cpu.icache.ReadReq.avgMshrUncacheableLatency::cpu.mmu.itb_walker 66099.727535                       # average ReadReq mshr uncacheable latency ((Tick/Count))
system.cpu.icache.ReadReq.avgMshrUncacheableLatency::cpu.mmu.stage2_dtb_walker 66099.727535                       # average ReadReq mshr uncacheable latency ((Tick/Count))
system.cpu.icache.ReadReq.avgMshrUncacheableLatency::cpu.mmu.stage2_itb_walker 66099.727535                       # average ReadReq mshr uncacheable latency ((Tick/Count))
system.cpu.icache.ReadReq.avgMshrUncacheableLatency::cpu.inst 66099.727535                       # average ReadReq mshr uncacheable latency ((Tick/Count))
system.cpu.icache.ReadReq.avgMshrUncacheableLatency::cpu.data 66099.727535                       # average ReadReq mshr uncacheable latency ((Tick/Count))
system.cpu.icache.ReadReq.avgMshrUncacheableLatency::pci_ide 66099.727535                       # average ReadReq mshr uncacheable latency ((Tick/Count))
system.cpu.icache.ReadReq.avgMshrUncacheableLatency::qkv_clstr.dma 66099.727535                       # average ReadReq mshr uncacheable latency ((Tick/Count))
system.cpu.icache.ReadReq.avgMshrUncacheableLatency::qkv_clstr.qkv.system.qkv_clstr.qkv 66099.727535                       # average ReadReq mshr uncacheable latency ((Tick/Count))
system.cpu.icache.ReadReq.avgMshrUncacheableLatency::qkv_clstr.top.system.qkv_clstr.top 66099.727535                       # average ReadReq mshr uncacheable latency ((Tick/Count))
system.cpu.icache.ReadReq.avgMshrUncacheableLatency::total 66099.727535                       # average ReadReq mshr uncacheable latency ((Tick/Count))
system.cpu.icache.power_state.pwrStateResidencyTicks::UNDEFINED  51231487000                       # Cumulative time (in ticks) in various power states (Tick)
system.cpu.icache.power_state.pwrStateResidencyTicks::ON  51231487000                       # Cumulative time (in ticks) in various power states (Tick)
system.cpu.icache.power_state.pwrStateResidencyTicks::CLK_GATED  51231487000                       # Cumulative time (in ticks) in various power states (Tick)
system.cpu.icache.power_state.pwrStateResidencyTicks::SRAM_RETENTION  51231487000                       # Cumulative time (in ticks) in various power states (Tick)
system.cpu.icache.power_state.pwrStateResidencyTicks::OFF  51231487000                       # Cumulative time (in ticks) in various power states (Tick)
system.cpu.icache.tags.tagsInUse                    0                       # Average ticks per tags in use ((Tick/Count))
system.cpu.icache.tags.totalRefs                    0                       # Total number of references to valid blocks. (Count)
system.cpu.icache.tags.sampledRefs                  0                       # Sample count of references to valid blocks. (Count)
system.cpu.icache.tags.avgRefs                    nan                       # Average number of references to valid blocks. ((Count/Count))
system.cpu.icache.tags.warmupTick                   0                       # The tick when the warmup percentage was hit. (Tick)
system.cpu.icache.tags.tagAccesses                  0                       # Number of tag accesses (Count)
system.cpu.icache.tags.dataAccesses                 0                       # Number of data accesses (Count)
[...]
system.realview.trusted_watchdog.power_state.pwrStateResidencyTicks::UNDEFINED  51231623000                       # Cumulative time (in ticks) in various power states (Tick)
system.realview.trusted_watchdog.power_state.pwrStateResidencyTicks::ON  51231623000                       # Cumulative time (in ticks) in various power states (Tick)
system.realview.trusted_watchdog.power_state.pwrStateResidencyTicks::CLK_GATED  51231623000                       # Cumulative time (in ticks) in various power states (Tick)
system.realview.trusted_watchdog.power_state.pwrStateResidencyTicks::SRAM_RETENTION  51231623000                       # Cumulative time (in ticks) in various power states (Tick)
system.realview.trusted_watchdog.power_state.pwrStateResidencyTicks::OFF  51231623000                       # Cumulative time (in ticks) in various power states (Tick)
system.realview.uart0.power_state.pwrStateResidencyTicks::UNDEFINED  51231623000                       # Cumulative time (in ticks) in various power states (Tick)
system.realview.uart0.power_state.pwrStateResidencyTicks::ON  51231623000                       # Cumulative time (in ticks) in various power states (Tick)
system.realview.uart0.power_state.pwrStateResidencyTicks::CLK_GATED  51231623000                       # Cumulative time (in ticks) in various power states (Tick)
system.realview.uart0.power_state.pwrStateResidencyTicks::SRAM_RETENTION  51231623000                       # Cumulative time (in ticks) in various power states (Tick)
system.realview.uart0.power_state.pwrStateResidencyTicks::OFF  51231623000                       # Cumulative time (in ticks) in various power states (Tick)
system.realview.uart1.power_state.pwrStateResidencyTicks::UNDEFINED  51231623000                       # Cumulative time (in ticks) in various power states (Tick)
system.realview.uart1.power_state.pwrStateResidencyTicks::ON  51231623000                       # Cumulative time (in ticks) in various power states (Tick)
system.realview.uart1.power_state.pwrStateResidencyTicks::CLK_GATED  51231623000                       # Cumulative time (in ticks) in various power states (Tick)
system.realview.uart1.power_state.pwrStateResidencyTicks::SRAM_RETENTION  51231623000                       # Cumulative time (in ticks) in various power states (Tick)
system.realview.uart1.power_state.pwrStateResidencyTicks::OFF  51231623000                       # Cumulative time (in ticks) in various power states (Tick)
system.realview.uart2.power_state.pwrStateResidencyTicks::UNDEFINED  51231623000                       # Cumulative time (in ticks) in various power states (Tick)
system.realview.uart2.power_state.pwrStateResidencyTicks::ON  51231623000                       # Cumulative time (in ticks) in various power states (Tick)
system.realview.uart2.power_state.pwrStateResidencyTicks::CLK_GATED  51231623000                       # Cumulative time (in ticks) in various power states (Tick)
system.realview.uart2.power_state.pwrStateResidencyTicks::SRAM_RETENTION  51231623000                       # Cumulative time (in ticks) in various power states (Tick)
system.realview.uart2.power_state.pwrStateResidencyTicks::OFF  51231623000                       # Cumulative time (in ticks) in various power states (Tick)
system.realview.uart3.power_state.pwrStateResidencyTicks::UNDEFINED  51231623000                       # Cumulative time (in ticks) in various power states (Tick)
system.realview.uart3.power_state.pwrStateResidencyTicks::ON  51231623000                       # Cumulative time (in ticks) in various power states (Tick)
system.realview.uart3.power_state.pwrStateResidencyTicks::CLK_GATED  51231623000                       # Cumulative time (in ticks) in various power states (Tick)
system.realview.uart3.power_state.pwrStateResidencyTicks::SRAM_RETENTION  51231623000                       # Cumulative time (in ticks) in various power states (Tick)
system.realview.uart3.power_state.pwrStateResidencyTicks::OFF  51231623000                       # Cumulative time (in ticks) in various power states (Tick)
system.realview.vgic.power_state.pwrStateResidencyTicks::UNDEFINED  51231623000                       # Cumulative time (in ticks) in various power states (Tick)
system.realview.vgic.power_state.pwrStateResidencyTicks::ON  51231623000                       # Cumulative time (in ticks) in various power states (Tick)
system.realview.vgic.power_state.pwrStateResidencyTicks::CLK_GATED  51231623000                       # Cumulative time (in ticks) in various power states (Tick)
system.realview.vgic.power_state.pwrStateResidencyTicks::SRAM_RETENTION  51231623000                       # Cumulative time (in ticks) in various power states (Tick)
system.realview.vgic.power_state.pwrStateResidencyTicks::OFF  51231623000                       # Cumulative time (in ticks) in various power states (Tick)
system.realview.vio0.power_state.pwrStateResidencyTicks::UNDEFINED  51231623000                       # Cumulative time (in ticks) in various power states (Tick)
system.realview.vio0.power_state.pwrStateResidencyTicks::ON  51231623000                       # Cumulative time (in ticks) in various power states (Tick)
system.realview.vio0.power_state.pwrStateResidencyTicks::CLK_GATED  51231623000                       # Cumulative time (in ticks) in various power states (Tick)
system.realview.vio0.power_state.pwrStateResidencyTicks::SRAM_RETENTION  51231623000                       # Cumulative time (in ticks) in various power states (Tick)
system.realview.vio0.power_state.pwrStateResidencyTicks::OFF  51231623000                       # Cumulative time (in ticks) in various power states (Tick)
system.realview.vio1.power_state.pwrStateResidencyTicks::UNDEFINED  51231623000                       # Cumulative time (in ticks) in various power states (Tick)
system.realview.vio1.power_state.pwrStateResidencyTicks::ON  51231623000                       # Cumulative time (in ticks) in various power states (Tick)
system.realview.vio1.power_state.pwrStateResidencyTicks::CLK_GATED  51231623000                       # Cumulative time (in ticks) in various power states (Tick)
system.realview.vio1.power_state.pwrStateResidencyTicks::SRAM_RETENTION  51231623000                       # Cumulative time (in ticks) in various power states (Tick)
system.realview.vio1.power_state.pwrStateResidencyTicks::OFF  51231623000                       # Cumulative time (in ticks) in various power states (Tick)
system.realview.vram.power_state.pwrStateResidencyTicks::UNDEFINED  51231623000                       # Cumulative time (in ticks) in various power states (Tick)
system.realview.vram.power_state.pwrStateResidencyTicks::ON  51231623000                       # Cumulative time (in ticks) in various power states (Tick)
system.realview.vram.power_state.pwrStateResidencyTicks::CLK_GATED  51231623000                       # Cumulative time (in ticks) in various power states (Tick)
system.realview.vram.power_state.pwrStateResidencyTicks::SRAM_RETENTION  51231623000                       # Cumulative time (in ticks) in various power states (Tick)
system.realview.vram.power_state.pwrStateResidencyTicks::OFF  51231623000                       # Cumulative time (in ticks) in various power states (Tick)
system.realview.watchdog.power_state.pwrStateResidencyTicks::UNDEFINED  51231623000                       # Cumulative time (in ticks) in various power states (Tick)
system.realview.watchdog.power_state.pwrStateResidencyTicks::ON  51231623000                       # Cumulative time (in ticks) in various power states (Tick)
system.realview.watchdog.power_state.pwrStateResidencyTicks::CLK_GATED  51231623000                       # Cumulative time (in ticks) in various power states (Tick)
system.realview.watchdog.power_state.pwrStateResidencyTicks::SRAM_RETENTION  51231623000                       # Cumulative time (in ticks) in various power states (Tick)
system.realview.watchdog.power_state.pwrStateResidencyTicks::OFF  51231623000                       # Cumulative time (in ticks) in various power states (Tick)
system.tol2bus.transDist::InvalidCmd          2088956                       # Transaction distribution (Count)
system.tol2bus.transDist::ReadReq             2088956                       # Transaction distribution (Count)
system.tol2bus.transDist::ReadResp            2088956                       # Transaction distribution (Count)
system.tol2bus.transDist::ReadRespWithInvalidate      2088956                       # Transaction distribution (Count)
system.tol2bus.transDist::WriteReq            2088956                       # Transaction distribution (Count)
system.tol2bus.transDist::WriteResp           2088956                       # Transaction distribution (Count)
system.tol2bus.transDist::WriteCompleteResp      2088956                       # Transaction distribution (Count)
system.tol2bus.transDist::WritebackDirty      2088956                       # Transaction distribution (Count)
system.tol2bus.transDist::WritebackClean      2088956                       # Transaction distribution (Count)
system.tol2bus.transDist::WriteClean          2088956                       # Transaction distribution (Count)
system.tol2bus.transDist::CleanEvict          2088956                       # Transaction distribution (Count)
system.tol2bus.transDist::SoftPFReq           2088956                       # Transaction distribution (Count)
system.tol2bus.transDist::SoftPFExReq         2088956                       # Transaction distribution (Count)
system.tol2bus.transDist::HardPFReq           2088956                       # Transaction distribution (Count)
system.tol2bus.transDist::SoftPFResp          2088956                       # Transaction distribution (Count)
system.tol2bus.transDist::HardPFResp          2088956                       # Transaction distribution (Count)
system.tol2bus.transDist::WriteLineReq        2088956                       # Transaction distribution (Count)
system.tol2bus.transDist::UpgradeReq          2088956                       # Transaction distribution (Count)
system.tol2bus.transDist::SCUpgradeReq        2088956                       # Transaction distribution (Count)
system.tol2bus.transDist::UpgradeResp         2088956                       # Transaction distribution (Count)
system.tol2bus.transDist::SCUpgradeFailReq      2088956                       # Transaction distribution (Count)
system.tol2bus.transDist::UpgradeFailResp      2088956                       # Transaction distribution (Count)
system.tol2bus.transDist::ReadExReq           2088956                       # Transaction distribution (Count)
system.tol2bus.transDist::ReadExResp          2088956                       # Transaction distribution (Count)
system.tol2bus.transDist::ReadCleanReq        2088956                       # Transaction distribution (Count)
system.tol2bus.transDist::ReadSharedReq       2088956                       # Transaction distribution (Count)
system.tol2bus.transDist::LoadLockedReq       2088956                       # Transaction distribution (Count)
system.tol2bus.transDist::StoreCondReq        2088956                       # Transaction distribution (Count)
system.tol2bus.transDist::StoreCondFailReq      2088956                       # Transaction distribution (Count)
system.tol2bus.transDist::StoreCondResp       2088956                       # Transaction distribution (Count)
system.tol2bus.transDist::SwapReq             2088956                       # Transaction distribution (Count)
system.tol2bus.transDist::SwapResp            2088956                       # Transaction distribution (Count)
system.tol2bus.transDist::Deprecated_MessageReq      2088956                       # Transaction distribution (Count)
system.tol2bus.transDist::Deprecated_MessageResp      2088956                       # Transaction distribution (Count)
system.tol2bus.transDist::MemFenceReq         2088956                       # Transaction distribution (Count)
system.tol2bus.transDist::MemSyncReq          2088956                       # Transaction distribution (Count)
system.tol2bus.transDist::MemSyncResp         2088956                       # Transaction distribution (Count)
system.tol2bus.transDist::MemFenceResp        2088956                       # Transaction distribution (Count)
system.tol2bus.transDist::CleanSharedReq      2088956                       # Transaction distribution (Count)
system.tol2bus.transDist::CleanSharedResp      2088956                       # Transaction distribution (Count)
system.tol2bus.transDist::CleanInvalidReq      2088956                       # Transaction distribution (Count)
system.tol2bus.transDist::CleanInvalidResp      2088956                       # Transaction distribution (Count)
system.tol2bus.transDist::InvalidDestError      2088956                       # Transaction distribution (Count)
system.tol2bus.transDist::BadAddressError      2088956                       # Transaction distribution (Count)
system.tol2bus.transDist::FunctionalReadError      2088956                       # Transaction distribution (Count)
system.tol2bus.transDist::FunctionalWriteError      2088956                       # Transaction distribution (Count)
system.tol2bus.transDist::PrintReq            2088956                       # Transaction distribution (Count)
system.tol2bus.transDist::FlushReq            2088956                       # Transaction distribution (Count)
system.tol2bus.transDist::InvalidateReq       2088956                       # Transaction distribution (Count)
system.tol2bus.transDist::InvalidateResp      2088956                       # Transaction distribution (Count)
system.tol2bus.transDist::HTMReq              2088956                       # Transaction distribution (Count)
system.tol2bus.transDist::HTMReqResp          2088956                       # Transaction distribution (Count)
system.tol2bus.transDist::HTMAbort            2088956                       # Transaction distribution (Count)
system.tol2bus.pktCount_system.cpu.icache.mem_side_port::system.l2.cpu_side_port      2088956                       # Packet count per connected requestor and responder (Count)
system.tol2bus.pktCount_system.cpu.dcache.mem_side_port::system.l2.cpu_side_port      2088956                       # Packet count per connected requestor and responder (Count)
system.tol2bus.pktCount_system.cpu.mmu.itb_walker.port::system.l2.cpu_side_port      2088956                       # Packet count per connected requestor and responder (Count)
system.tol2bus.pktCount_system.cpu.mmu.dtb_walker.port::system.l2.cpu_side_port      2088956                       # Packet count per connected requestor and responder (Count)
system.tol2bus.pktCount::total                8355824                       # Packet count per connected requestor and responder (Count)
system.tol2bus.pktSize_system.cpu.icache.mem_side_port::system.l2.cpu_side_port     33994598                       # Cumulative packet size per connected requestor and responder (Byte)
system.tol2bus.pktSize_system.cpu.dcache.mem_side_port::system.l2.cpu_side_port     33994598                       # Cumulative packet size per connected requestor and responder (Byte)
system.tol2bus.pktSize_system.cpu.mmu.itb_walker.port::system.l2.cpu_side_port     33994598                       # Cumulative packet size per connected requestor and responder (Byte)
system.tol2bus.pktSize_system.cpu.mmu.dtb_walker.port::system.l2.cpu_side_port     33994598                       # Cumulative packet size per connected requestor and responder (Byte)
system.tol2bus.pktSize::total               135978392                       # Cumulative packet size per connected requestor and responder (Byte)
system.tol2bus.snoops                               0                       # Total snoops (Count)
system.tol2bus.snoopTraffic                         0                       # Total snoop traffic (Byte)
system.tol2bus.snoopFanout::samples           1044504                       # Request fanout histogram
system.tol2bus.snoopFanout::mean                    0                       # Request fanout histogram
system.tol2bus.snoopFanout::stdev                   0                       # Request fanout histogram
system.tol2bus.snoopFanout::underflows              0      0.00%      0.00% # Request fanout histogram
system.tol2bus.snoopFanout::0                 1044504    100.00%    100.00% # Request fanout histogram
system.tol2bus.snoopFanout::1                       0      0.00%    100.00% # Request fanout histogram
system.tol2bus.snoopFanout::2                       0      0.00%    100.00% # Request fanout histogram
system.tol2bus.snoopFanout::overflows               0      0.00%    100.00% # Request fanout histogram
system.tol2bus.snoopFanout::min_value               0                       # Request fanout histogram
system.tol2bus.snoopFanout::max_value               0                       # Request fanout histogram
system.tol2bus.snoopFanout::total             1044504                       # Request fanout histogram
system.tol2bus.power_state.pwrStateResidencyTicks::UNDEFINED  51231623000                       # Cumulative time (in ticks) in various power states (Tick)
system.tol2bus.power_state.pwrStateResidencyTicks::ON  51231623000                       # Cumulative time (in ticks) in various power states (Tick)
system.tol2bus.power_state.pwrStateResidencyTicks::CLK_GATED  51231623000                       # Cumulative time (in ticks) in various power states (Tick)
system.tol2bus.power_state.pwrStateResidencyTicks::SRAM_RETENTION  51231623000                       # Cumulative time (in ticks) in various power states (Tick)
system.tol2bus.power_state.pwrStateResidencyTicks::OFF  51231623000                       # Cumulative time (in ticks) in various power states (Tick)
system.tol2bus.reqLayer0.occupancy          600531803                       # Layer occupancy (ticks) (Tick)
system.tol2bus.reqLayer0.utilization              0.0                       # Layer utilization (Ratio)
system.tol2bus.respLayer0.occupancy         745419000                       # Layer occupancy (ticks) (Tick)
system.tol2bus.respLayer0.utilization             0.0                       # Layer utilization (Ratio)
system.tol2bus.respLayer1.occupancy         469264500                       # Layer occupancy (ticks) (Tick)
system.tol2bus.respLayer1.utilization             0.0                       # Layer utilization (Ratio)
system.tol2bus.snoop_filter.totRequests             0                       # Total number of requests made to the snoop filter. (Count)
system.tol2bus.snoop_filter.hitSingleRequests            0                       # Number of requests hitting in the snoop filter with a single holder of the requested data. (Count)
system.tol2bus.snoop_filter.hitMultiRequests            0                       # Number of requests hitting in the snoop filter with multiple (>1) holders of the requested data. (Count)
system.tol2bus.snoop_filter.totSnoops               0                       # Total number of snoops made to the snoop filter. (Count)
system.tol2bus.snoop_filter.hitSingleSnoops            0                       # Number of snoops hitting in the snoop filter with a single holder of the requested data. (Count)
system.tol2bus.snoop_filter.hitMultiSnoops            0                       # Number of snoops hitting in the snoop filter with multiple (>1) holders of the requested data. (Count)
system.voltage_domain.voltage                       1                       # Voltage in Volts (Volt)
system.workload.inst.arm                            0                       # number of arm instructions executed (Count)
system.workload.inst.quiesce                        0                       # number of quiesce instructions executed (Count)

---------- End Simulation Statistics   ----------
