
---------- Begin Simulation Statistics ----------
simSeconds                                   0.007545                       # Number of seconds simulated (Second)
simTicks                                   7544690500                       # Number of ticks simulated (Tick)
finalTick                                  7545822500                       # Number of ticks from beginning of simulation (restored from checkpoints and never reset) (Tick)
simFreq                                  1000000000000                       # The number of ticks per simulated second ((Tick/Second))
hostSeconds                                      3.53                       # Real time elapsed on the host (Second)
hostTickRate                               2137612788                       # The number of ticks simulated per host second (ticks/s) ((Tick/Second))
hostMemory                                    4644312                       # Number of bytes of host memory used (Byte)
simInsts                                       726096                       # Number of instructions simulated (Count)
simOps                                         737902                       # Number of ops (including micro ops) simulated (Count)
hostInstRate                                   205715                       # Simulator instruction rate (inst/s) ((Count/Second))
hostOpRate                                     209060                       # Simulator op (including micro ops) rate (op/s) ((Count/Second))
system.bridge.power_state.pwrStateResidencyTicks::UNDEFINED   7545822500                       # Cumulative time (in ticks) in various power states (Tick)
system.bridge.power_state.pwrStateResidencyTicks::ON   7545822500                       # Cumulative time (in ticks) in various power states (Tick)
system.bridge.power_state.pwrStateResidencyTicks::CLK_GATED   7545822500                       # Cumulative time (in ticks) in various power states (Tick)
system.bridge.power_state.pwrStateResidencyTicks::SRAM_RETENTION   7545822500                       # Cumulative time (in ticks) in various power states (Tick)
system.bridge.power_state.pwrStateResidencyTicks::OFF   7545822500                       # Cumulative time (in ticks) in various power states (Tick)
system.clk_domain.clock                          1000                       # Clock period in ticks (Tick)
system.cpu.numCycles                         15089381                       # Number of cpu cycles simulated (Cycle)
system.cpu.numWorkItemsStarted                      0                       # Number of work items this cpu started (Count)
system.cpu.numWorkItemsCompleted                    0                       # Number of work items this cpu completed (Count)
system.cpu.instsAdded                          756348                       # Number of instructions added to the IQ (excludes non-spec) (Count)
system.cpu.instsIssued                         760489                       # Number of instructions issued (Count)
system.cpu.squashedInstsExamined                18488                       # Number of squashed instructions iterated over during squash; mainly for profiling (Count)
system.cpu.squashedOperandsExamined              5569                       # Number of squashed operands that are examined and possibly removed from graph (Count)
system.cpu.numIssuedDist::samples             2653026                       # Number of insts issued each cycle
system.cpu.numIssuedDist::mean               0.286650                       # Number of insts issued each cycle
system.cpu.numIssuedDist::stdev              0.747678                       # Number of insts issued each cycle
system.cpu.numIssuedDist::underflows                0      0.00%      0.00% # Number of insts issued each cycle
system.cpu.numIssuedDist::0                   2226218     83.91%     83.91% # Number of insts issued each cycle
system.cpu.numIssuedDist::1                    199395      7.52%     91.43% # Number of insts issued each cycle
system.cpu.numIssuedDist::2                    147553      5.56%     96.99% # Number of insts issued each cycle
system.cpu.numIssuedDist::3                     57395      2.16%     99.15% # Number of insts issued each cycle
system.cpu.numIssuedDist::4                     18524      0.70%     99.85% # Number of insts issued each cycle
system.cpu.numIssuedDist::5                      3940      0.15%    100.00% # Number of insts issued each cycle
system.cpu.numIssuedDist::6                         0      0.00%    100.00% # Number of insts issued each cycle
system.cpu.numIssuedDist::7                         1      0.00%    100.00% # Number of insts issued each cycle
system.cpu.numIssuedDist::8                         0      0.00%    100.00% # Number of insts issued each cycle
system.cpu.numIssuedDist::overflows                 0      0.00%    100.00% # Number of insts issued each cycle
system.cpu.numIssuedDist::min_value                 0                       # Number of insts issued each cycle
system.cpu.numIssuedDist::max_value                 7                       # Number of insts issued each cycle
system.cpu.numIssuedDist::total               2653026                       # Number of insts issued each cycle
system.cpu.statFuBusy::No_OpClass                  11      1.89%      1.89% # attempts to use FU when none available (Count)
system.cpu.statFuBusy::IntAlu                      11      1.89%      3.77% # attempts to use FU when none available (Count)
system.cpu.statFuBusy::IntMult                     11      1.89%      5.66% # attempts to use FU when none available (Count)
system.cpu.statFuBusy::IntDiv                      11      1.89%      7.55% # attempts to use FU when none available (Count)
system.cpu.statFuBusy::FloatAdd                    11      1.89%      9.43% # attempts to use FU when none available (Count)
system.cpu.statFuBusy::FloatCmp                    11      1.89%     11.32% # attempts to use FU when none available (Count)
system.cpu.statFuBusy::FloatCvt                    11      1.89%     13.21% # attempts to use FU when none available (Count)
system.cpu.statFuBusy::FloatMult                   11      1.89%     15.09% # attempts to use FU when none available (Count)
system.cpu.statFuBusy::FloatMultAcc                11      1.89%     16.98% # attempts to use FU when none available (Count)
system.cpu.statFuBusy::FloatDiv                    11      1.89%     18.87% # attempts to use FU when none available (Count)
system.cpu.statFuBusy::FloatMisc                   11      1.89%     20.75% # attempts to use FU when none available (Count)
system.cpu.statFuBusy::FloatSqrt                   11      1.89%     22.64% # attempts to use FU when none available (Count)
system.cpu.statFuBusy::SimdAdd                     11      1.89%     24.53% # attempts to use FU when none available (Count)
system.cpu.statFuBusy::SimdAddAcc                  11      1.89%     26.42% # attempts to use FU when none available (Count)
system.cpu.statFuBusy::SimdAlu                     11      1.89%     28.30% # attempts to use FU when none available (Count)
system.cpu.statFuBusy::SimdCmp                     11      1.89%     30.19% # attempts to use FU when none available (Count)
system.cpu.statFuBusy::SimdCvt                     11      1.89%     32.08% # attempts to use FU when none available (Count)
system.cpu.statFuBusy::SimdMisc                    11      1.89%     33.96% # attempts to use FU when none available (Count)
system.cpu.statFuBusy::SimdMult                    11      1.89%     35.85% # attempts to use FU when none available (Count)
system.cpu.statFuBusy::SimdMultAcc                 11      1.89%     37.74% # attempts to use FU when none available (Count)
system.cpu.statFuBusy::SimdShift                   11      1.89%     39.62% # attempts to use FU when none available (Count)
system.cpu.statFuBusy::SimdShiftAcc                11      1.89%     41.51% # attempts to use FU when none available (Count)
system.cpu.statFuBusy::SimdDiv                     11      1.89%     43.40% # attempts to use FU when none available (Count)
system.cpu.statFuBusy::SimdSqrt                    11      1.89%     45.28% # attempts to use FU when none available (Count)
system.cpu.statFuBusy::SimdFloatAdd                11      1.89%     47.17% # attempts to use FU when none available (Count)
system.cpu.statFuBusy::SimdFloatAlu                11      1.89%     49.06% # attempts to use FU when none available (Count)
system.cpu.statFuBusy::SimdFloatCmp                11      1.89%     50.94% # attempts to use FU when none available (Count)
system.cpu.statFuBusy::SimdFloatCvt                11      1.89%     52.83% # attempts to use FU when none available (Count)
system.cpu.statFuBusy::SimdFloatDiv                11      1.89%     54.72% # attempts to use FU when none available (Count)
system.cpu.statFuBusy::SimdFloatMisc               11      1.89%     56.60% # attempts to use FU when none available (Count)
system.cpu.statFuBusy::SimdFloatMult               11      1.89%     58.49% # attempts to use FU when none available (Count)
system.cpu.statFuBusy::SimdFloatMultAcc            11      1.89%     60.38% # attempts to use FU when none available (Count)
system.cpu.statFuBusy::SimdFloatSqrt               11      1.89%     62.26% # attempts to use FU when none available (Count)
system.cpu.statFuBusy::SimdReduceAdd               11      1.89%     64.15% # attempts to use FU when none available (Count)
system.cpu.statFuBusy::SimdReduceAlu               11      1.89%     66.04% # attempts to use FU when none available (Count)
system.cpu.statFuBusy::SimdReduceCmp               11      1.89%     67.92% # attempts to use FU when none available (Count)
system.cpu.statFuBusy::SimdFloatReduceAdd           11      1.89%     69.81% # attempts to use FU when none available (Count)
system.cpu.statFuBusy::SimdFloatReduceCmp           11      1.89%     71.70% # attempts to use FU when none available (Count)
system.cpu.statFuBusy::SimdAes                     11      1.89%     73.58% # attempts to use FU when none available (Count)
system.cpu.statFuBusy::SimdAesMix                  11      1.89%     75.47% # attempts to use FU when none available (Count)
system.cpu.statFuBusy::SimdSha1Hash                11      1.89%     77.36% # attempts to use FU when none available (Count)
system.cpu.statFuBusy::SimdSha1Hash2               11      1.89%     79.25% # attempts to use FU when none available (Count)
system.cpu.statFuBusy::SimdSha256Hash              11      1.89%     81.13% # attempts to use FU when none available (Count)
system.cpu.statFuBusy::SimdSha256Hash2             11      1.89%     83.02% # attempts to use FU when none available (Count)
system.cpu.statFuBusy::SimdShaSigma2               11      1.89%     84.91% # attempts to use FU when none available (Count)
system.cpu.statFuBusy::SimdShaSigma3               11      1.89%     86.79% # attempts to use FU when none available (Count)
system.cpu.statFuBusy::SimdPredAlu                 11      1.89%     88.68% # attempts to use FU when none available (Count)
system.cpu.statFuBusy::MemRead                     11      1.89%     90.57% # attempts to use FU when none available (Count)
system.cpu.statFuBusy::MemWrite                    11      1.89%     92.45% # attempts to use FU when none available (Count)
system.cpu.statFuBusy::FloatMemRead                11      1.89%     94.34% # attempts to use FU when none available (Count)
system.cpu.statFuBusy::FloatMemWrite               11      1.89%     96.23% # attempts to use FU when none available (Count)
system.cpu.statFuBusy::IprAccess                   11      1.89%     98.11% # attempts to use FU when none available (Count)
system.cpu.statFuBusy::InstPrefetch                11      1.89%    100.00% # attempts to use FU when none available (Count)
system.cpu.statIssuedInstType_0::No_OpClass       760489      1.89%      1.89% # Number of instructions issued per FU type, per thread (Count)
system.cpu.statIssuedInstType_0::IntAlu        760489      1.89%      3.77% # Number of instructions issued per FU type, per thread (Count)
system.cpu.statIssuedInstType_0::IntMult       760489      1.89%      5.66% # Number of instructions issued per FU type, per thread (Count)
system.cpu.statIssuedInstType_0::IntDiv        760489      1.89%      7.55% # Number of instructions issued per FU type, per thread (Count)
system.cpu.statIssuedInstType_0::FloatAdd       760489      1.89%      9.43% # Number of instructions issued per FU type, per thread (Count)
system.cpu.statIssuedInstType_0::FloatCmp       760489      1.89%     11.32% # Number of instructions issued per FU type, per thread (Count)
system.cpu.statIssuedInstType_0::FloatCvt       760489      1.89%     13.21% # Number of instructions issued per FU type, per thread (Count)
system.cpu.statIssuedInstType_0::FloatMult       760489      1.89%     15.09% # Number of instructions issued per FU type, per thread (Count)
system.cpu.statIssuedInstType_0::FloatMultAcc       760489      1.89%     16.98% # Number of instructions issued per FU type, per thread (Count)
system.cpu.statIssuedInstType_0::FloatDiv       760489      1.89%     18.87% # Number of instructions issued per FU type, per thread (Count)
system.cpu.statIssuedInstType_0::FloatMisc       760489      1.89%     20.75% # Number of instructions issued per FU type, per thread (Count)
system.cpu.statIssuedInstType_0::FloatSqrt       760489      1.89%     22.64% # Number of instructions issued per FU type, per thread (Count)
system.cpu.statIssuedInstType_0::SimdAdd       760489      1.89%     24.53% # Number of instructions issued per FU type, per thread (Count)
system.cpu.statIssuedInstType_0::SimdAddAcc       760489      1.89%     26.42% # Number of instructions issued per FU type, per thread (Count)
system.cpu.statIssuedInstType_0::SimdAlu       760489      1.89%     28.30% # Number of instructions issued per FU type, per thread (Count)
system.cpu.statIssuedInstType_0::SimdCmp       760489      1.89%     30.19% # Number of instructions issued per FU type, per thread (Count)
system.cpu.statIssuedInstType_0::SimdCvt       760489      1.89%     32.08% # Number of instructions issued per FU type, per thread (Count)
system.cpu.statIssuedInstType_0::SimdMisc       760489      1.89%     33.96% # Number of instructions issued per FU type, per thread (Count)
system.cpu.statIssuedInstType_0::SimdMult       760489      1.89%     35.85% # Number of instructions issued per FU type, per thread (Count)
system.cpu.statIssuedInstType_0::SimdMultAcc       760489      1.89%     37.74% # Number of instructions issued per FU type, per thread (Count)
system.cpu.statIssuedInstType_0::SimdShift       760489      1.89%     39.62% # Number of instructions issued per FU type, per thread (Count)
system.cpu.statIssuedInstType_0::SimdShiftAcc       760489      1.89%     41.51% # Number of instructions issued per FU type, per thread (Count)
system.cpu.statIssuedInstType_0::SimdDiv       760489      1.89%     43.40% # Number of instructions issued per FU type, per thread (Count)
system.cpu.statIssuedInstType_0::SimdSqrt       760489      1.89%     45.28% # Number of instructions issued per FU type, per thread (Count)
system.cpu.statIssuedInstType_0::SimdFloatAdd       760489      1.89%     47.17% # Number of instructions issued per FU type, per thread (Count)
system.cpu.statIssuedInstType_0::SimdFloatAlu       760489      1.89%     49.06% # Number of instructions issued per FU type, per thread (Count)
system.cpu.statIssuedInstType_0::SimdFloatCmp       760489      1.89%     50.94% # Number of instructions issued per FU type, per thread (Count)
system.cpu.statIssuedInstType_0::SimdFloatCvt       760489      1.89%     52.83% # Number of instructions issued per FU type, per thread (Count)
system.cpu.statIssuedInstType_0::SimdFloatDiv       760489      1.89%     54.72% # Number of instructions issued per FU type, per thread (Count)
system.cpu.statIssuedInstType_0::SimdFloatMisc       760489      1.89%     56.60% # Number of instructions issued per FU type, per thread (Count)
system.cpu.statIssuedInstType_0::SimdFloatMult       760489      1.89%     58.49% # Number of instructions issued per FU type, per thread (Count)
system.cpu.statIssuedInstType_0::SimdFloatMultAcc       760489      1.89%     60.38% # Number of instructions issued per FU type, per thread (Count)
system.cpu.statIssuedInstType_0::SimdFloatSqrt       760489      1.89%     62.26% # Number of instructions issued per FU type, per thread (Count)
system.cpu.statIssuedInstType_0::SimdReduceAdd       760489      1.89%     64.15% # Number of instructions issued per FU type, per thread (Count)
system.cpu.statIssuedInstType_0::SimdReduceAlu       760489      1.89%     66.04% # Number of instructions issued per FU type, per thread (Count)
system.cpu.statIssuedInstType_0::SimdReduceCmp       760489      1.89%     67.92% # Number of instructions issued per FU type, per thread (Count)
system.cpu.statIssuedInstType_0::SimdFloatReduceAdd       760489      1.89%     69.81% # Number of instructions issued per FU type, per thread (Count)
system.cpu.statIssuedInstType_0::SimdFloatReduceCmp       760489      1.89%     71.70% # Number of instructions issued per FU type, per thread (Count)
system.cpu.statIssuedInstType_0::SimdAes       760489      1.89%     73.58% # Number of instructions issued per FU type, per thread (Count)
system.cpu.statIssuedInstType_0::SimdAesMix       760489      1.89%     75.47% # Number of instructions issued per FU type, per thread (Count)
system.cpu.statIssuedInstType_0::SimdSha1Hash       760489      1.89%     77.36% # Number of instructions issued per FU type, per thread (Count)
system.cpu.statIssuedInstType_0::SimdSha1Hash2       760489      1.89%     79.25% # Number of instructions issued per FU type, per thread (Count)
system.cpu.statIssuedInstType_0::SimdSha256Hash       760489      1.89%     81.13% # Number of instructions issued per FU type, per thread (Count)
system.cpu.statIssuedInstType_0::SimdSha256Hash2       760489      1.89%     83.02% # Number of instructions issued per FU type, per thread (Count)
system.cpu.statIssuedInstType_0::SimdShaSigma2       760489      1.89%     84.91% # Number of instructions issued per FU type, per thread (Count)
system.cpu.statIssuedInstType_0::SimdShaSigma3       760489      1.89%     86.79% # Number of instructions issued per FU type, per thread (Count)
system.cpu.statIssuedInstType_0::SimdPredAlu       760489      1.89%     88.68% # Number of instructions issued per FU type, per thread (Count)
system.cpu.statIssuedInstType_0::MemRead       760489      1.89%     90.57% # Number of instructions issued per FU type, per thread (Count)
system.cpu.statIssuedInstType_0::MemWrite       760489      1.89%     92.45% # Number of instructions issued per FU type, per thread (Count)
system.cpu.statIssuedInstType_0::FloatMemRead       760489      1.89%     94.34% # Number of instructions issued per FU type, per thread (Count)
system.cpu.statIssuedInstType_0::FloatMemWrite       760489      1.89%     96.23% # Number of instructions issued per FU type, per thread (Count)
system.cpu.statIssuedInstType_0::IprAccess       760489      1.89%     98.11% # Number of instructions issued per FU type, per thread (Count)
system.cpu.statIssuedInstType_0::InstPrefetch       760489      1.89%    100.00% # Number of instructions issued per FU type, per thread (Count)
system.cpu.statIssuedInstType_0::total       40305917                       # Number of instructions issued per FU type, per thread (Count)
system.cpu.issueRate                         0.050399                       # Inst issue rate ((Count/Cycle))
system.cpu.fuBusy                                  11                       # FU busy when requested (Count)
system.cpu.fuBusyRate                        0.000014                       # FU busy rate (busy events/executed inst) ((Count/Count))
system.cpu.intInstQueueReads                  4174014                       # Number of integer instruction queue reads (Count)
system.cpu.intInstQueueWrites                  774836                       # Number of integer instruction queue writes (Count)
system.cpu.intInstQueueWakeupAccesses          752769                       # Number of integer instruction queue wakeup accesses (Count)
system.cpu.fpInstQueueReads                         0                       # Number of floating instruction queue reads (Count)
system.cpu.fpInstQueueWrites                        0                       # Number of floating instruction queue writes (Count)
system.cpu.fpInstQueueWakeupAccesses                0                       # Number of floating instruction queue wakeup accesses (Count)
system.cpu.vecInstQueueReads                        0                       # Number of vector instruction queue reads (Count)
system.cpu.vecInstQueueWrites                       0                       # Number of vector instruction queue writes (Count)
system.cpu.vecInstQueueWakeupAccesses               0                       # Number of vector instruction queue wakeup accesses (Count)
system.cpu.intAluAccesses                      760500                       # Number of integer alu accesses (Count)
system.cpu.fpAluAccesses                            0                       # Number of floating point alu accesses (Count)
system.cpu.vecAluAccesses                           0                       # Number of vector alu accesses (Count)
system.cpu.idleCycles                               0                       # Number of cycles IEW is idle (Cycle)
system.cpu.squashCycles                          5780                       # Number of cycles IEW is squashing (Cycle)
system.cpu.blockCycles                             83                       # Number of cycles IEW is blocking (Cycle)
system.cpu.unblockCycles                            2                       # Number of cycles IEW is unblocking (Cycle)
system.cpu.dispatchedInsts                     756348                       # Number of instructions dispatched to IQ (Count)
system.cpu.dispSquashedInsts                        0                       # Number of squashed instructions skipped by dispatch (Count)
system.cpu.dispLoadInsts                         3946                       # Number of dispatched load instructions (Count)
system.cpu.dispStoreInsts                       13772                       # Number of dispatched store instructions (Count)
system.cpu.dispNonSpecInsts                         0                       # Number of dispatched non-speculative instructions (Count)
system.cpu.iqFullEvents                             0                       # Number of times the IQ has become full, causing a stall (Count)
system.cpu.lsqFullEvents                            0                       # Number of times the LSQ has become full, causing a stall (Count)
system.cpu.memOrderViolationEvents                  0                       # Number of memory order violations (Count)
system.cpu.predictedTakenIncorrect               3368                       # Number of branches that were predicted taken incorrectly (Count)
system.cpu.predictedNotTakenIncorrect            3544                       # Number of branches that were predicted not taken incorrectly (Count)
system.cpu.branchMispredicts                     6912                       # Number of branch mispredicts detected at execute (Count)
system.cpu.numInsts                            758731                       # Number of executed instructions (Count)
system.cpu.numLoadInsts                          9904                       # Number of load instructions executed (Count)
system.cpu.numSquashedInsts                      1757                       # Number of squashed instructions skipped in execute (Count)
system.cpu.numSwp                                   0                       # Number of swp insts executed (Count)
system.cpu.numNop                                   0                       # Number of nop insts executed (Count)
system.cpu.numRefs                              23676                       # Number of memory reference insts executed (Count)
system.cpu.numBranches                         122135                       # Number of branches executed (Count)
system.cpu.numStoreInsts                        13772                       # Number of stores executed (Count)
system.cpu.numRate                           0.050282                       # Inst execution rate ((Count/Cycle))
system.cpu.instsToCommit                       758731                       # Cumulative count of insts sent to commit (Count)
system.cpu.writebackCount                      752769                       # Cumulative count of insts written-back (Count)
system.cpu.producerInst                        462475                       # Number of instructions producing a value (Count)
system.cpu.consumerInst                       1262065                       # Number of instructions consuming a value (Count)
system.cpu.wbRate                            0.049887                       # Insts written-back per cycle ((Count/Cycle))
system.cpu.wbFanout                          0.366443                       # Average fanout of values written-back ((Count/Count))
system.cpu.timesIdled                          119589                       # Number of times that the entire CPU went into an idle state and unscheduled itself (Count)
system.cpu.idleCycles                        12436355                       # Total number of cycles that the CPU has spent unscheduled due to idling (Cycle)
system.cpu.committedInsts                      726057                       # Number of Instructions Simulated (Count)
system.cpu.committedOps                        737855                       # Number of Ops (including micro ops) Simulated (Count)
system.cpu.cpi                              20.782640                       # CPI: Cycles Per Instruction ((Cycle/Count))
system.cpu.totalCpi                         20.782640                       # CPI: Total CPI of All Threads ((Cycle/Count))
system.cpu.ipc                               0.048117                       # IPC: Instructions Per Cycle ((Count/Cycle))
system.cpu.totalIpc                          0.048117                       # IPC: Total IPC of All Threads ((Count/Cycle))
system.cpu.intRegfileReads                     948557                       # Number of integer regfile reads (Count)
system.cpu.intRegfileWrites                    527216                       # Number of integer regfile writes (Count)
system.cpu.ccRegfileReads                     2288019                       # number of cc regfile reads (Count)
system.cpu.ccRegfileWrites                     563846                       # number of cc regfile writes (Count)
system.cpu.miscRegfileReads                   3088844                       # number of misc regfile reads (Count)
system.cpu.MemDepUnit__0.insertedLoads           3946                       # Number of loads inserted to the mem dependence unit. (Count)
system.cpu.MemDepUnit__0.insertedStores         13772                       # Number of stores inserted to the mem dependence unit. (Count)
system.cpu.MemDepUnit__0.conflictingLoads            0                       # Number of conflicting loads. (Count)
system.cpu.MemDepUnit__0.conflictingStores            0                       # Number of conflicting stores. (Count)
system.cpu.MemDepUnit__1.insertedLoads              0                       # Number of loads inserted to the mem dependence unit. (Count)
system.cpu.MemDepUnit__1.insertedStores             0                       # Number of stores inserted to the mem dependence unit. (Count)
system.cpu.MemDepUnit__1.conflictingLoads            0                       # Number of conflicting loads. (Count)
system.cpu.MemDepUnit__1.conflictingStores            0                       # Number of conflicting stores. (Count)
system.cpu.MemDepUnit__2.insertedLoads              0                       # Number of loads inserted to the mem dependence unit. (Count)
system.cpu.MemDepUnit__2.insertedStores             0                       # Number of stores inserted to the mem dependence unit. (Count)
system.cpu.MemDepUnit__2.conflictingLoads            0                       # Number of conflicting loads. (Count)
system.cpu.MemDepUnit__2.conflictingStores            0                       # Number of conflicting stores. (Count)
system.cpu.MemDepUnit__3.insertedLoads              0                       # Number of loads inserted to the mem dependence unit. (Count)
system.cpu.MemDepUnit__3.insertedStores             0                       # Number of stores inserted to the mem dependence unit. (Count)
system.cpu.MemDepUnit__3.conflictingLoads            0                       # Number of conflicting loads. (Count)
system.cpu.MemDepUnit__3.conflictingStores            0                       # Number of conflicting stores. (Count)
system.cpu.branchPred.lookups                  123930                       # Number of BP lookups (Count)
system.cpu.branchPred.condPredicted             75624                       # Number of conditional branches predicted (Count)
system.cpu.branchPred.condIncorrect              5795                       # Number of conditional branches incorrect (Count)
system.cpu.branchPred.BTBLookups                56606                       # Number of BTB lookups (Count)
system.cpu.branchPred.BTBHits                   56557                       # Number of BTB hits (Count)
system.cpu.branchPred.BTBHitRatio            0.999134                       # BTB Hit Ratio (Ratio)
system.cpu.branchPred.RASUsed                   24684                       # Number of times the RAS was used to get a target. (Count)
system.cpu.branchPred.RASIncorrect                  1                       # Number of incorrect RAS predictions. (Count)
system.cpu.branchPred.indirectLookups               0                       # Number of indirect predictor lookups. (Count)
system.cpu.branchPred.indirectHits                  0                       # Number of indirect target hits. (Count)
system.cpu.branchPred.indirectMisses                0                       # Number of indirect misses. (Count)
system.cpu.branchPred.indirectMispredicted            0                       # Number of mispredicted indirect branches. (Count)
system.cpu.commit.commitSquashedInsts           18488                       # The number of squashed insts skipped by commit (Count)
system.cpu.commit.branchMispredicts              5780                       # The number of times a branch was mispredicted (Count)
system.cpu.commit.numCommittedDist::samples      2647232                       # Number of insts commited each cycle
system.cpu.commit.numCommittedDist::mean     0.278727                       # Number of insts commited each cycle
system.cpu.commit.numCommittedDist::stdev     0.798047                       # Number of insts commited each cycle
system.cpu.commit.numCommittedDist::underflows            0      0.00%      0.00% # Number of insts commited each cycle
system.cpu.commit.numCommittedDist::0         2241542     84.67%     84.67% # Number of insts commited each cycle
system.cpu.commit.numCommittedDist::1          206534      7.80%     92.48% # Number of insts commited each cycle
system.cpu.commit.numCommittedDist::2          135034      5.10%     97.58% # Number of insts commited each cycle
system.cpu.commit.numCommittedDist::3           21497      0.81%     98.39% # Number of insts commited each cycle
system.cpu.commit.numCommittedDist::4           29582      1.12%     99.51% # Number of insts commited each cycle
system.cpu.commit.numCommittedDist::5            3023      0.11%     99.62% # Number of insts commited each cycle
system.cpu.commit.numCommittedDist::6            6965      0.26%     99.88% # Number of insts commited each cycle
system.cpu.commit.numCommittedDist::7            2911      0.11%     99.99% # Number of insts commited each cycle
system.cpu.commit.numCommittedDist::8             144      0.01%    100.00% # Number of insts commited each cycle
system.cpu.commit.numCommittedDist::overflows            0      0.00%    100.00% # Number of insts commited each cycle
system.cpu.commit.numCommittedDist::min_value            0                       # Number of insts commited each cycle
system.cpu.commit.numCommittedDist::max_value            8                       # Number of insts commited each cycle
system.cpu.commit.numCommittedDist::total      2647232                       # Number of insts commited each cycle
system.cpu.commit.instsCommitted               726057                       # Number of instructions committed (Count)
system.cpu.commit.opsCommitted                 737855                       # Number of ops (including micro ops) committed (Count)
system.cpu.commit.memRefs                       17714                       # Number of memory references committed (Count)
system.cpu.commit.loads                          3942                       # Number of loads committed (Count)
system.cpu.commit.amos                              0                       # Number of atomic instructions committed (Count)
system.cpu.commit.membars                           0                       # Number of memory barriers committed (Count)
system.cpu.commit.branches                     119883                       # Number of branches committed (Count)
system.cpu.commit.vectorInstructions                0                       # Number of committed Vector instructions. (Count)
system.cpu.commit.floating                          0                       # Number of committed floating point instructions. (Count)
system.cpu.commit.integer                      676931                       # Number of committed integer instructions. (Count)
system.cpu.commit.functionCalls                 23584                       # Number of function calls committed. (Count)
system.cpu.commit.committedInstType_0::No_OpClass       737855      1.89%      1.89% # Class of committed instruction (Count)
system.cpu.commit.committedInstType_0::IntAlu       737855      1.89%      3.77% # Class of committed instruction (Count)
system.cpu.commit.committedInstType_0::IntMult       737855      1.89%      5.66% # Class of committed instruction (Count)
system.cpu.commit.committedInstType_0::IntDiv       737855      1.89%      7.55% # Class of committed instruction (Count)
system.cpu.commit.committedInstType_0::FloatAdd       737855      1.89%      9.43% # Class of committed instruction (Count)
system.cpu.commit.committedInstType_0::FloatCmp       737855      1.89%     11.32% # Class of committed instruction (Count)
system.cpu.commit.committedInstType_0::FloatCvt       737855      1.89%     13.21% # Class of committed instruction (Count)
system.cpu.commit.committedInstType_0::FloatMult       737855      1.89%     15.09% # Class of committed instruction (Count)
system.cpu.commit.committedInstType_0::FloatMultAcc       737855      1.89%     16.98% # Class of committed instruction (Count)
system.cpu.commit.committedInstType_0::FloatDiv       737855      1.89%     18.87% # Class of committed instruction (Count)
system.cpu.commit.committedInstType_0::FloatMisc       737855      1.89%     20.75% # Class of committed instruction (Count)
system.cpu.commit.committedInstType_0::FloatSqrt       737855      1.89%     22.64% # Class of committed instruction (Count)
system.cpu.commit.committedInstType_0::SimdAdd       737855      1.89%     24.53% # Class of committed instruction (Count)
system.cpu.commit.committedInstType_0::SimdAddAcc       737855      1.89%     26.42% # Class of committed instruction (Count)
system.cpu.commit.committedInstType_0::SimdAlu       737855      1.89%     28.30% # Class of committed instruction (Count)
system.cpu.commit.committedInstType_0::SimdCmp       737855      1.89%     30.19% # Class of committed instruction (Count)
system.cpu.commit.committedInstType_0::SimdCvt       737855      1.89%     32.08% # Class of committed instruction (Count)
system.cpu.commit.committedInstType_0::SimdMisc       737855      1.89%     33.96% # Class of committed instruction (Count)
system.cpu.commit.committedInstType_0::SimdMult       737855      1.89%     35.85% # Class of committed instruction (Count)
system.cpu.commit.committedInstType_0::SimdMultAcc       737855      1.89%     37.74% # Class of committed instruction (Count)
system.cpu.commit.committedInstType_0::SimdShift       737855      1.89%     39.62% # Class of committed instruction (Count)
system.cpu.commit.committedInstType_0::SimdShiftAcc       737855      1.89%     41.51% # Class of committed instruction (Count)
system.cpu.commit.committedInstType_0::SimdDiv       737855      1.89%     43.40% # Class of committed instruction (Count)
system.cpu.commit.committedInstType_0::SimdSqrt       737855      1.89%     45.28% # Class of committed instruction (Count)
system.cpu.commit.committedInstType_0::SimdFloatAdd       737855      1.89%     47.17% # Class of committed instruction (Count)
system.cpu.commit.committedInstType_0::SimdFloatAlu       737855      1.89%     49.06% # Class of committed instruction (Count)
system.cpu.commit.committedInstType_0::SimdFloatCmp       737855      1.89%     50.94% # Class of committed instruction (Count)
system.cpu.commit.committedInstType_0::SimdFloatCvt       737855      1.89%     52.83% # Class of committed instruction (Count)
system.cpu.commit.committedInstType_0::SimdFloatDiv       737855      1.89%     54.72% # Class of committed instruction (Count)
system.cpu.commit.committedInstType_0::SimdFloatMisc       737855      1.89%     56.60% # Class of committed instruction (Count)
system.cpu.commit.committedInstType_0::SimdFloatMult       737855      1.89%     58.49% # Class of committed instruction (Count)
system.cpu.commit.committedInstType_0::SimdFloatMultAcc       737855      1.89%     60.38% # Class of committed instruction (Count)
system.cpu.commit.committedInstType_0::SimdFloatSqrt       737855      1.89%     62.26% # Class of committed instruction (Count)
system.cpu.commit.committedInstType_0::SimdReduceAdd       737855      1.89%     64.15% # Class of committed instruction (Count)
system.cpu.commit.committedInstType_0::SimdReduceAlu       737855      1.89%     66.04% # Class of committed instruction (Count)
system.cpu.commit.committedInstType_0::SimdReduceCmp       737855      1.89%     67.92% # Class of committed instruction (Count)
system.cpu.commit.committedInstType_0::SimdFloatReduceAdd       737855      1.89%     69.81% # Class of committed instruction (Count)
system.cpu.commit.committedInstType_0::SimdFloatReduceCmp       737855      1.89%     71.70% # Class of committed instruction (Count)
system.cpu.commit.committedInstType_0::SimdAes       737855      1.89%     73.58% # Class of committed instruction (Count)
system.cpu.commit.committedInstType_0::SimdAesMix       737855      1.89%     75.47% # Class of committed instruction (Count)
system.cpu.commit.committedInstType_0::SimdSha1Hash       737855      1.89%     77.36% # Class of committed instruction (Count)
system.cpu.commit.committedInstType_0::SimdSha1Hash2       737855      1.89%     79.25% # Class of committed instruction (Count)
system.cpu.commit.committedInstType_0::SimdSha256Hash       737855      1.89%     81.13% # Class of committed instruction (Count)
system.cpu.commit.committedInstType_0::SimdSha256Hash2       737855      1.89%     83.02% # Class of committed instruction (Count)
system.cpu.commit.committedInstType_0::SimdShaSigma2       737855      1.89%     84.91% # Class of committed instruction (Count)
system.cpu.commit.committedInstType_0::SimdShaSigma3       737855      1.89%     86.79% # Class of committed instruction (Count)
system.cpu.commit.committedInstType_0::SimdPredAlu       737855      1.89%     88.68% # Class of committed instruction (Count)
system.cpu.commit.committedInstType_0::MemRead       737855      1.89%     90.57% # Class of committed instruction (Count)
system.cpu.commit.committedInstType_0::MemWrite       737855      1.89%     92.45% # Class of committed instruction (Count)
system.cpu.commit.committedInstType_0::FloatMemRead       737855      1.89%     94.34% # Class of committed instruction (Count)
system.cpu.commit.committedInstType_0::FloatMemWrite       737855      1.89%     96.23% # Class of committed instruction (Count)
system.cpu.commit.committedInstType_0::IprAccess       737855      1.89%     98.11% # Class of committed instruction (Count)
system.cpu.commit.committedInstType_0::InstPrefetch       737855      1.89%    100.00% # Class of committed instruction (Count)
system.cpu.commit.committedInstType_0::total     39106315                       # Class of committed instruction (Count)
system.cpu.commit.commitEligibleSamples           144                       # number cycles where commit BW limit reached (Cycle)
system.cpu.dcache.blockedCycles::no_mshrs            1                       # number of cycles access was blocked (Cycle)
system.cpu.dcache.blockedCycles::no_targets            1                       # number of cycles access was blocked (Cycle)
system.cpu.dcache.blockedCauses::no_mshrs            1                       # number of times access was blocked (Count)
system.cpu.dcache.blockedCauses::no_targets            1                       # number of times access was blocked (Count)
system.cpu.dcache.avgBlocked::no_mshrs              1                       # average number of cycles each access was blocked ((Cycle/Count))
system.cpu.dcache.avgBlocked::no_targets            1                       # average number of cycles each access was blocked ((Cycle/Count))
system.cpu.dcache.overallMshrUncacheable::writebacks        17714                       # number of overall MSHR uncacheable misses (Count)
system.cpu.dcache.overallMshrUncacheable::functional        17714                       # number of overall MSHR uncacheable misses (Count)
system.cpu.dcache.overallMshrUncacheable::interrupt        17714                       # number of overall MSHR uncacheable misses (Count)
system.cpu.dcache.overallMshrUncacheable::cpu.mmu.dtb_walker        17714                       # number of overall MSHR uncacheable misses (Count)
system.cpu.dcache.overallMshrUncacheable::cpu.mmu.itb_walker        17714                       # number of overall MSHR uncacheable misses (Count)
system.cpu.dcache.overallMshrUncacheable::cpu.mmu.stage2_dtb_walker        17714                       # number of overall MSHR uncacheable misses (Count)
system.cpu.dcache.overallMshrUncacheable::cpu.mmu.stage2_itb_walker        17714                       # number of overall MSHR uncacheable misses (Count)
system.cpu.dcache.overallMshrUncacheable::cpu.inst        17714                       # number of overall MSHR uncacheable misses (Count)
system.cpu.dcache.overallMshrUncacheable::cpu.data        17714                       # number of overall MSHR uncacheable misses (Count)
system.cpu.dcache.overallMshrUncacheable::pci_ide        17714                       # number of overall MSHR uncacheable misses (Count)
system.cpu.dcache.overallMshrUncacheable::qkv_clstr.dma        17714                       # number of overall MSHR uncacheable misses (Count)
system.cpu.dcache.overallMshrUncacheable::qkv_clstr.qkv.system.qkv_clstr.qkv        17714                       # number of overall MSHR uncacheable misses (Count)
system.cpu.dcache.overallMshrUncacheable::qkv_clstr.top.system.qkv_clstr.top        17714                       # number of overall MSHR uncacheable misses (Count)
system.cpu.dcache.overallMshrUncacheable::total       230282                       # number of overall MSHR uncacheable misses (Count)
system.cpu.dcache.overallMshrUncacheableLatency::writebacks    259736500                       # number of overall MSHR uncacheable ticks (Tick)
system.cpu.dcache.overallMshrUncacheableLatency::functional    259736500                       # number of overall MSHR uncacheable ticks (Tick)
system.cpu.dcache.overallMshrUncacheableLatency::interrupt    259736500                       # number of overall MSHR uncacheable ticks (Tick)
system.cpu.dcache.overallMshrUncacheableLatency::cpu.mmu.dtb_walker    259736500                       # number of overall MSHR uncacheable ticks (Tick)
system.cpu.dcache.overallMshrUncacheableLatency::cpu.mmu.itb_walker    259736500                       # number of overall MSHR uncacheable ticks (Tick)
system.cpu.dcache.overallMshrUncacheableLatency::cpu.mmu.stage2_dtb_walker    259736500                       # number of overall MSHR uncacheable ticks (Tick)
system.cpu.dcache.overallMshrUncacheableLatency::cpu.mmu.stage2_itb_walker    259736500                       # number of overall MSHR uncacheable ticks (Tick)
system.cpu.dcache.overallMshrUncacheableLatency::cpu.inst    259736500                       # number of overall MSHR uncacheable ticks (Tick)
system.cpu.dcache.overallMshrUncacheableLatency::cpu.data    259736500                       # number of overall MSHR uncacheable ticks (Tick)
system.cpu.dcache.overallMshrUncacheableLatency::pci_ide    259736500                       # number of overall MSHR uncacheable ticks (Tick)
system.cpu.dcache.overallMshrUncacheableLatency::qkv_clstr.dma    259736500                       # number of overall MSHR uncacheable ticks (Tick)
system.cpu.dcache.overallMshrUncacheableLatency::qkv_clstr.qkv.system.qkv_clstr.qkv    259736500                       # number of overall MSHR uncacheable ticks (Tick)
system.cpu.dcache.overallMshrUncacheableLatency::qkv_clstr.top.system.qkv_clstr.top    259736500                       # number of overall MSHR uncacheable ticks (Tick)
system.cpu.dcache.overallMshrUncacheableLatency::total   3376574500                       # number of overall MSHR uncacheable ticks (Tick)
system.cpu.dcache.overallAvgMshrUncacheableLatency::writebacks 14662.780851                       # average overall mshr uncacheable latency ((Cycle/Count))
system.cpu.dcache.overallAvgMshrUncacheableLatency::functional 14662.780851                       # average overall mshr uncacheable latency ((Cycle/Count))
system.cpu.dcache.overallAvgMshrUncacheableLatency::interrupt 14662.780851                       # average overall mshr uncacheable latency ((Cycle/Count))
system.cpu.dcache.overallAvgMshrUncacheableLatency::cpu.mmu.dtb_walker 14662.780851                       # average overall mshr uncacheable latency ((Cycle/Count))
system.cpu.dcache.overallAvgMshrUncacheableLatency::cpu.mmu.itb_walker 14662.780851                       # average overall mshr uncacheable latency ((Cycle/Count))
system.cpu.dcache.overallAvgMshrUncacheableLatency::cpu.mmu.stage2_dtb_walker 14662.780851                       # average overall mshr uncacheable latency ((Cycle/Count))
system.cpu.dcache.overallAvgMshrUncacheableLatency::cpu.mmu.stage2_itb_walker 14662.780851                       # average overall mshr uncacheable latency ((Cycle/Count))
system.cpu.dcache.overallAvgMshrUncacheableLatency::cpu.inst 14662.780851                       # average overall mshr uncacheable latency ((Cycle/Count))
system.cpu.dcache.overallAvgMshrUncacheableLatency::cpu.data 14662.780851                       # average overall mshr uncacheable latency ((Cycle/Count))
system.cpu.dcache.overallAvgMshrUncacheableLatency::pci_ide 14662.780851                       # average overall mshr uncacheable latency ((Cycle/Count))
system.cpu.dcache.overallAvgMshrUncacheableLatency::qkv_clstr.dma 14662.780851                       # average overall mshr uncacheable latency ((Cycle/Count))
system.cpu.dcache.overallAvgMshrUncacheableLatency::qkv_clstr.qkv.system.qkv_clstr.qkv 14662.780851                       # average overall mshr uncacheable latency ((Cycle/Count))
system.cpu.dcache.overallAvgMshrUncacheableLatency::qkv_clstr.top.system.qkv_clstr.top 14662.780851                       # average overall mshr uncacheable latency ((Cycle/Count))
system.cpu.dcache.overallAvgMshrUncacheableLatency::total 14662.780851                       # average overall mshr uncacheable latency ((Cycle/Count))
system.cpu.dcache.replacements                      0                       # number of replacements (Count)
system.cpu.dcache.ReadReq.mshrUncacheable::writebacks         3942                       # number of ReadReq MSHR uncacheable (Count)
system.cpu.dcache.ReadReq.mshrUncacheable::functional         3942                       # number of ReadReq MSHR uncacheable (Count)
system.cpu.dcache.ReadReq.mshrUncacheable::interrupt         3942                       # number of ReadReq MSHR uncacheable (Count)
system.cpu.dcache.ReadReq.mshrUncacheable::cpu.mmu.dtb_walker         3942                       # number of ReadReq MSHR uncacheable (Count)
system.cpu.dcache.ReadReq.mshrUncacheable::cpu.mmu.itb_walker         3942                       # number of ReadReq MSHR uncacheable (Count)
system.cpu.dcache.ReadReq.mshrUncacheable::cpu.mmu.stage2_dtb_walker         3942                       # number of ReadReq MSHR uncacheable (Count)
system.cpu.dcache.ReadReq.mshrUncacheable::cpu.mmu.stage2_itb_walker         3942                       # number of ReadReq MSHR uncacheable (Count)
system.cpu.dcache.ReadReq.mshrUncacheable::cpu.inst         3942                       # number of ReadReq MSHR uncacheable (Count)
system.cpu.dcache.ReadReq.mshrUncacheable::cpu.data         3942                       # number of ReadReq MSHR uncacheable (Count)
system.cpu.dcache.ReadReq.mshrUncacheable::pci_ide         3942                       # number of ReadReq MSHR uncacheable (Count)
system.cpu.dcache.ReadReq.mshrUncacheable::qkv_clstr.dma         3942                       # number of ReadReq MSHR uncacheable (Count)
system.cpu.dcache.ReadReq.mshrUncacheable::qkv_clstr.qkv.system.qkv_clstr.qkv         3942                       # number of ReadReq MSHR uncacheable (Count)
system.cpu.dcache.ReadReq.mshrUncacheable::qkv_clstr.top.system.qkv_clstr.top         3942                       # number of ReadReq MSHR uncacheable (Count)
system.cpu.dcache.ReadReq.mshrUncacheable::total        51246                       # number of ReadReq MSHR uncacheable (Count)
system.cpu.dcache.ReadReq.mshrUncacheableLatency::writebacks    259736500                       # number of ReadReq MSHR uncacheable ticks (Tick)
system.cpu.dcache.ReadReq.mshrUncacheableLatency::functional    259736500                       # number of ReadReq MSHR uncacheable ticks (Tick)
system.cpu.dcache.ReadReq.mshrUncacheableLatency::interrupt    259736500                       # number of ReadReq MSHR uncacheable ticks (Tick)
system.cpu.dcache.ReadReq.mshrUncacheableLatency::cpu.mmu.dtb_walker    259736500                       # number of ReadReq MSHR uncacheable ticks (Tick)
system.cpu.dcache.ReadReq.mshrUncacheableLatency::cpu.mmu.itb_walker    259736500                       # number of ReadReq MSHR uncacheable ticks (Tick)
system.cpu.dcache.ReadReq.mshrUncacheableLatency::cpu.mmu.stage2_dtb_walker    259736500                       # number of ReadReq MSHR uncacheable ticks (Tick)
system.cpu.dcache.ReadReq.mshrUncacheableLatency::cpu.mmu.stage2_itb_walker    259736500                       # number of ReadReq MSHR uncacheable ticks (Tick)
system.cpu.dcache.ReadReq.mshrUncacheableLatency::cpu.inst    259736500                       # number of ReadReq MSHR uncacheable ticks (Tick)
system.cpu.dcache.ReadReq.mshrUncacheableLatency::cpu.data    259736500                       # number of ReadReq MSHR uncacheable ticks (Tick)
system.cpu.dcache.ReadReq.mshrUncacheableLatency::pci_ide    259736500                       # number of ReadReq MSHR uncacheable ticks (Tick)
system.cpu.dcache.ReadReq.mshrUncacheableLatency::qkv_clstr.dma    259736500                       # number of ReadReq MSHR uncacheable ticks (Tick)
system.cpu.dcache.ReadReq.mshrUncacheableLatency::qkv_clstr.qkv.system.qkv_clstr.qkv    259736500                       # number of ReadReq MSHR uncacheable ticks (Tick)
system.cpu.dcache.ReadReq.mshrUncacheableLatency::qkv_clstr.top.system.qkv_clstr.top    259736500                       # number of ReadReq MSHR uncacheable ticks (Tick)
system.cpu.dcache.ReadReq.mshrUncacheableLatency::total   3376574500                       # number of ReadReq MSHR uncacheable ticks (Tick)
system.cpu.dcache.ReadReq.avgMshrUncacheableLatency::writebacks 65889.523085                       # average ReadReq mshr uncacheable latency ((Tick/Count))
system.cpu.dcache.ReadReq.avgMshrUncacheableLatency::functional 65889.523085                       # average ReadReq mshr uncacheable latency ((Tick/Count))
system.cpu.dcache.ReadReq.avgMshrUncacheableLatency::interrupt 65889.523085                       # average ReadReq mshr uncacheable latency ((Tick/Count))
system.cpu.dcache.ReadReq.avgMshrUncacheableLatency::cpu.mmu.dtb_walker 65889.523085                       # average ReadReq mshr uncacheable latency ((Tick/Count))
system.cpu.dcache.ReadReq.avgMshrUncacheableLatency::cpu.mmu.itb_walker 65889.523085                       # average ReadReq mshr uncacheable latency ((Tick/Count))
system.cpu.dcache.ReadReq.avgMshrUncacheableLatency::cpu.mmu.stage2_dtb_walker 65889.523085                       # average ReadReq mshr uncacheable latency ((Tick/Count))
system.cpu.dcache.ReadReq.avgMshrUncacheableLatency::cpu.mmu.stage2_itb_walker 65889.523085                       # average ReadReq mshr uncacheable latency ((Tick/Count))
system.cpu.dcache.ReadReq.avgMshrUncacheableLatency::cpu.inst 65889.523085                       # average ReadReq mshr uncacheable latency ((Tick/Count))
system.cpu.dcache.ReadReq.avgMshrUncacheableLatency::cpu.data 65889.523085                       # average ReadReq mshr uncacheable latency ((Tick/Count))
system.cpu.dcache.ReadReq.avgMshrUncacheableLatency::pci_ide 65889.523085                       # average ReadReq mshr uncacheable latency ((Tick/Count))
system.cpu.dcache.ReadReq.avgMshrUncacheableLatency::qkv_clstr.dma 65889.523085                       # average ReadReq mshr uncacheable latency ((Tick/Count))
system.cpu.dcache.ReadReq.avgMshrUncacheableLatency::qkv_clstr.qkv.system.qkv_clstr.qkv 65889.523085                       # average ReadReq mshr uncacheable latency ((Tick/Count))
system.cpu.dcache.ReadReq.avgMshrUncacheableLatency::qkv_clstr.top.system.qkv_clstr.top 65889.523085                       # average ReadReq mshr uncacheable latency ((Tick/Count))
system.cpu.dcache.ReadReq.avgMshrUncacheableLatency::total 65889.523085                       # average ReadReq mshr uncacheable latency ((Tick/Count))
system.cpu.dcache.WriteReq.mshrUncacheable::writebacks        13772                       # number of WriteReq MSHR uncacheable (Count)
system.cpu.dcache.WriteReq.mshrUncacheable::functional        13772                       # number of WriteReq MSHR uncacheable (Count)
system.cpu.dcache.WriteReq.mshrUncacheable::interrupt        13772                       # number of WriteReq MSHR uncacheable (Count)
system.cpu.dcache.WriteReq.mshrUncacheable::cpu.mmu.dtb_walker        13772                       # number of WriteReq MSHR uncacheable (Count)
system.cpu.dcache.WriteReq.mshrUncacheable::cpu.mmu.itb_walker        13772                       # number of WriteReq MSHR uncacheable (Count)
system.cpu.dcache.WriteReq.mshrUncacheable::cpu.mmu.stage2_dtb_walker        13772                       # number of WriteReq MSHR uncacheable (Count)
system.cpu.dcache.WriteReq.mshrUncacheable::cpu.mmu.stage2_itb_walker        13772                       # number of WriteReq MSHR uncacheable (Count)
system.cpu.dcache.WriteReq.mshrUncacheable::cpu.inst        13772                       # number of WriteReq MSHR uncacheable (Count)
system.cpu.dcache.WriteReq.mshrUncacheable::cpu.data        13772                       # number of WriteReq MSHR uncacheable (Count)
system.cpu.dcache.WriteReq.mshrUncacheable::pci_ide        13772                       # number of WriteReq MSHR uncacheable (Count)
system.cpu.dcache.WriteReq.mshrUncacheable::qkv_clstr.dma        13772                       # number of WriteReq MSHR uncacheable (Count)
system.cpu.dcache.WriteReq.mshrUncacheable::qkv_clstr.qkv.system.qkv_clstr.qkv        13772                       # number of WriteReq MSHR uncacheable (Count)
system.cpu.dcache.WriteReq.mshrUncacheable::qkv_clstr.top.system.qkv_clstr.top        13772                       # number of WriteReq MSHR uncacheable (Count)
system.cpu.dcache.WriteReq.mshrUncacheable::total       179036                       # number of WriteReq MSHR uncacheable (Count)
system.cpu.dcache.power_state.pwrStateResidencyTicks::UNDEFINED   7545822500                       # Cumulative time (in ticks) in various power states (Tick)
system.cpu.dcache.power_state.pwrStateResidencyTicks::ON   7545822500                       # Cumulative time (in ticks) in various power states (Tick)
system.cpu.dcache.power_state.pwrStateResidencyTicks::CLK_GATED   7545822500                       # Cumulative time (in ticks) in various power states (Tick)
system.cpu.dcache.power_state.pwrStateResidencyTicks::SRAM_RETENTION   7545822500                       # Cumulative time (in ticks) in various power states (Tick)
system.cpu.dcache.power_state.pwrStateResidencyTicks::OFF   7545822500                       # Cumulative time (in ticks) in various power states (Tick)
system.cpu.dcache.tags.tagsInUse                    0                       # Average ticks per tags in use ((Tick/Count))
system.cpu.dcache.tags.totalRefs                    0                       # Total number of references to valid blocks. (Count)
system.cpu.dcache.tags.sampledRefs                  0                       # Sample count of references to valid blocks. (Count)
system.cpu.dcache.tags.avgRefs                    nan                       # Average number of references to valid blocks. ((Count/Count))
system.cpu.dcache.tags.warmupTick                   0                       # The tick when the warmup percentage was hit. (Tick)
system.cpu.dcache.tags.tagAccesses                  0                       # Number of tag accesses (Count)
system.cpu.dcache.tags.dataAccesses                 0                       # Number of data accesses (Count)
system.cpu.dcache.tags.power_state.pwrStateResidencyTicks::UNDEFINED   7545822500                       # Cumulative time (in ticks) in various power states (Tick)
system.cpu.dcache.tags.power_state.pwrStateResidencyTicks::ON   7545822500                       # Cumulative time (in ticks) in various power states (Tick)
system.cpu.dcache.tags.power_state.pwrStateResidencyTicks::CLK_GATED   7545822500                       # Cumulative time (in ticks) in various power states (Tick)
system.cpu.dcache.tags.power_state.pwrStateResidencyTicks::SRAM_RETENTION   7545822500                       # Cumulative time (in ticks) in various power states (Tick)
system.cpu.dcache.tags.power_state.pwrStateResidencyTicks::OFF   7545822500                       # Cumulative time (in ticks) in various power states (Tick)
system.cpu.decode.idleCycles                  2494341                       # Number of cycles decode is idle (Cycle)
system.cpu.decode.blockedCycles                   106                       # Number of cycles decode is blocked (Cycle)
system.cpu.decode.runCycles                    152797                       # Number of cycles decode is running (Cycle)
system.cpu.decode.unblockCycles                     2                       # Number of cycles decode is unblocking (Cycle)
system.cpu.decode.squashCycles                   5780                       # Number of cycles decode is squashing (Cycle)
system.cpu.decode.branchResolved                56572                       # Number of times decode resolved a branch (Count)
system.cpu.decode.branchMispred                    15                       # Number of times decode detected a branch misprediction (Count)
system.cpu.decode.decodedInsts                 756348                       # Number of instructions handled by decode (Count)
system.cpu.decode.squashedInsts                    61                       # Number of squashed instructions handled by decode (Count)
system.cpu.fetch.icacheStallCycles            2494432                       # Number of cycles fetch is stalled on an Icache miss (Cycle)
system.cpu.fetch.insts                         744660                       # Number of instructions fetch has processed (Count)
system.cpu.fetch.branches                      123930                       # Number of branches that fetch encountered (Count)
system.cpu.fetch.predictedBranches              81241                       # Number of branches that fetch has predicted taken (Count)
system.cpu.fetch.cycles                        152799                       # Number of cycles fetch has run and was not squashing or blocked (Cycle)
system.cpu.fetch.squashCycles                   11590                       # Number of cycles fetch has spent squashing (Cycle)
system.cpu.fetch.cacheLines                    115692                       # Number of cache lines fetched (Count)
system.cpu.fetch.icacheSquashes                  5791                       # Number of outstanding Icache misses that were squashed (Count)
system.cpu.fetch.nisnDist::samples            2653026                       # Number of instructions fetched each cycle (Total)
system.cpu.fetch.nisnDist::mean              0.285139                       # Number of instructions fetched each cycle (Total)
system.cpu.fetch.nisnDist::stdev             1.311833                       # Number of instructions fetched each cycle (Total)
system.cpu.fetch.nisnDist::underflows               0      0.00%      0.00% # Number of instructions fetched each cycle (Total)
system.cpu.fetch.nisnDist::0                  2500227     94.24%     94.24% # Number of instructions fetched each cycle (Total)
system.cpu.fetch.nisnDist::1                    10139      0.38%     94.62% # Number of instructions fetched each cycle (Total)
system.cpu.fetch.nisnDist::2                    31642      1.19%     95.82% # Number of instructions fetched each cycle (Total)
system.cpu.fetch.nisnDist::3                    23578      0.89%     96.70% # Number of instructions fetched each cycle (Total)
system.cpu.fetch.nisnDist::4                     3096      0.12%     96.82% # Number of instructions fetched each cycle (Total)
system.cpu.fetch.nisnDist::5                    15871      0.60%     97.42% # Number of instructions fetched each cycle (Total)
system.cpu.fetch.nisnDist::6                     5901      0.22%     97.64% # Number of instructions fetched each cycle (Total)
system.cpu.fetch.nisnDist::7                    15397      0.58%     98.22% # Number of instructions fetched each cycle (Total)
system.cpu.fetch.nisnDist::8                    47175      1.78%    100.00% # Number of instructions fetched each cycle (Total)
system.cpu.fetch.nisnDist::overflows                0      0.00%    100.00% # Number of instructions fetched each cycle (Total)
system.cpu.fetch.nisnDist::min_value                0                       # Number of instructions fetched each cycle (Total)
system.cpu.fetch.nisnDist::max_value                8                       # Number of instructions fetched each cycle (Total)
system.cpu.fetch.nisnDist::total              2653026                       # Number of instructions fetched each cycle (Total)
system.cpu.fetch.branchRate                  0.008213                       # Number of branch fetches per cycle (Ratio)
system.cpu.fetch.rate                        0.049350                       # Number of inst fetches per cycle ((Count/Cycle))
system.cpu.icache.blockedCycles::no_mshrs            0                       # number of cycles access was blocked (Cycle)
system.cpu.icache.blockedCycles::no_targets            0                       # number of cycles access was blocked (Cycle)
system.cpu.icache.blockedCauses::no_mshrs            0                       # number of times access was blocked (Count)
system.cpu.icache.blockedCauses::no_targets            0                       # number of times access was blocked (Count)
system.cpu.icache.avgBlocked::no_mshrs            nan                       # average number of cycles each access was blocked ((Cycle/Count))
system.cpu.icache.avgBlocked::no_targets          nan                       # average number of cycles each access was blocked ((Cycle/Count))
system.cpu.icache.overallMshrUncacheable::writebacks       115692                       # number of overall MSHR uncacheable misses (Count)
system.cpu.icache.overallMshrUncacheable::functional       115692                       # number of overall MSHR uncacheable misses (Count)
system.cpu.icache.overallMshrUncacheable::interrupt       115692                       # number of overall MSHR uncacheable misses (Count)
system.cpu.icache.overallMshrUncacheable::cpu.mmu.dtb_walker       115692                       # number of overall MSHR uncacheable misses (Count)
system.cpu.icache.overallMshrUncacheable::cpu.mmu.itb_walker       115692                       # number of overall MSHR uncacheable misses (Count)
system.cpu.icache.overallMshrUncacheable::cpu.mmu.stage2_dtb_walker       115692                       # number of overall MSHR uncacheable misses (Count)
system.cpu.icache.overallMshrUncacheable::cpu.mmu.stage2_itb_walker       115692                       # number of overall MSHR uncacheable misses (Count)
system.cpu.icache.overallMshrUncacheable::cpu.inst       115692                       # number of overall MSHR uncacheable misses (Count)
system.cpu.icache.overallMshrUncacheable::cpu.data       115692                       # number of overall MSHR uncacheable misses (Count)
system.cpu.icache.overallMshrUncacheable::pci_ide       115692                       # number of overall MSHR uncacheable misses (Count)
system.cpu.icache.overallMshrUncacheable::qkv_clstr.dma       115692                       # number of overall MSHR uncacheable misses (Count)
system.cpu.icache.overallMshrUncacheable::qkv_clstr.qkv.system.qkv_clstr.qkv       115692                       # number of overall MSHR uncacheable misses (Count)
system.cpu.icache.overallMshrUncacheable::qkv_clstr.top.system.qkv_clstr.top       115692                       # number of overall MSHR uncacheable misses (Count)
system.cpu.icache.overallMshrUncacheable::total      1503996                       # number of overall MSHR uncacheable misses (Count)
system.cpu.icache.overallMshrUncacheableLatency::writebacks   7659232000                       # number of overall MSHR uncacheable ticks (Tick)
system.cpu.icache.overallMshrUncacheableLatency::functional   7659232000                       # number of overall MSHR uncacheable ticks (Tick)
system.cpu.icache.overallMshrUncacheableLatency::interrupt   7659232000                       # number of overall MSHR uncacheable ticks (Tick)
system.cpu.icache.overallMshrUncacheableLatency::cpu.mmu.dtb_walker   7659232000                       # number of overall MSHR uncacheable ticks (Tick)
system.cpu.icache.overallMshrUncacheableLatency::cpu.mmu.itb_walker   7659232000                       # number of overall MSHR uncacheable ticks (Tick)
system.cpu.icache.overallMshrUncacheableLatency::cpu.mmu.stage2_dtb_walker   7659232000                       # number of overall MSHR uncacheable ticks (Tick)
system.cpu.icache.overallMshrUncacheableLatency::cpu.mmu.stage2_itb_walker   7659232000                       # number of overall MSHR uncacheable ticks (Tick)
system.cpu.icache.overallMshrUncacheableLatency::cpu.inst   7659232000                       # number of overall MSHR uncacheable ticks (Tick)
system.cpu.icache.overallMshrUncacheableLatency::cpu.data   7659232000                       # number of overall MSHR uncacheable ticks (Tick)
system.cpu.icache.overallMshrUncacheableLatency::pci_ide   7659232000                       # number of overall MSHR uncacheable ticks (Tick)
system.cpu.icache.overallMshrUncacheableLatency::qkv_clstr.dma   7659232000                       # number of overall MSHR uncacheable ticks (Tick)
system.cpu.icache.overallMshrUncacheableLatency::qkv_clstr.qkv.system.qkv_clstr.qkv   7659232000                       # number of overall MSHR uncacheable ticks (Tick)
system.cpu.icache.overallMshrUncacheableLatency::qkv_clstr.top.system.qkv_clstr.top   7659232000                       # number of overall MSHR uncacheable ticks (Tick)
system.cpu.icache.overallMshrUncacheableLatency::total  99570016000                       # number of overall MSHR uncacheable ticks (Tick)
system.cpu.icache.overallAvgMshrUncacheableLatency::writebacks 66203.644159                       # average overall mshr uncacheable latency ((Cycle/Count))
system.cpu.icache.overallAvgMshrUncacheableLatency::functional 66203.644159                       # average overall mshr uncacheable latency ((Cycle/Count))
system.cpu.icache.overallAvgMshrUncacheableLatency::interrupt 66203.644159                       # average overall mshr uncacheable latency ((Cycle/Count))
system.cpu.icache.overallAvgMshrUncacheableLatency::cpu.mmu.dtb_walker 66203.644159                       # average overall mshr uncacheable latency ((Cycle/Count))
system.cpu.icache.overallAvgMshrUncacheableLatency::cpu.mmu.itb_walker 66203.644159                       # average overall mshr uncacheable latency ((Cycle/Count))
system.cpu.icache.overallAvgMshrUncacheableLatency::cpu.mmu.stage2_dtb_walker 66203.644159                       # average overall mshr uncacheable latency ((Cycle/Count))
system.cpu.icache.overallAvgMshrUncacheableLatency::cpu.mmu.stage2_itb_walker 66203.644159                       # average overall mshr uncacheable latency ((Cycle/Count))
system.cpu.icache.overallAvgMshrUncacheableLatency::cpu.inst 66203.644159                       # average overall mshr uncacheable latency ((Cycle/Count))
system.cpu.icache.overallAvgMshrUncacheableLatency::cpu.data 66203.644159                       # average overall mshr uncacheable latency ((Cycle/Count))
system.cpu.icache.overallAvgMshrUncacheableLatency::pci_ide 66203.644159                       # average overall mshr uncacheable latency ((Cycle/Count))
system.cpu.icache.overallAvgMshrUncacheableLatency::qkv_clstr.dma 66203.644159                       # average overall mshr uncacheable latency ((Cycle/Count))
system.cpu.icache.overallAvgMshrUncacheableLatency::qkv_clstr.qkv.system.qkv_clstr.qkv 66203.644159                       # average overall mshr uncacheable latency ((Cycle/Count))
system.cpu.icache.overallAvgMshrUncacheableLatency::qkv_clstr.top.system.qkv_clstr.top 66203.644159                       # average overall mshr uncacheable latency ((Cycle/Count))
system.cpu.icache.overallAvgMshrUncacheableLatency::total 66203.644159                       # average overall mshr uncacheable latency ((Cycle/Count))
system.cpu.icache.replacements                      0                       # number of replacements (Count)
system.cpu.icache.ReadReq.mshrUncacheable::writebacks       115692                       # number of ReadReq MSHR uncacheable (Count)
system.cpu.icache.ReadReq.mshrUncacheable::functional       115692                       # number of ReadReq MSHR uncacheable (Count)
system.cpu.icache.ReadReq.mshrUncacheable::interrupt       115692                       # number of ReadReq MSHR uncacheable (Count)
system.cpu.icache.ReadReq.mshrUncacheable::cpu.mmu.dtb_walker       115692                       # number of ReadReq MSHR uncacheable (Count)
system.cpu.icache.ReadReq.mshrUncacheable::cpu.mmu.itb_walker       115692                       # number of ReadReq MSHR uncacheable (Count)
system.cpu.icache.ReadReq.mshrUncacheable::cpu.mmu.stage2_dtb_walker       115692                       # number of ReadReq MSHR uncacheable (Count)
system.cpu.icache.ReadReq.mshrUncacheable::cpu.mmu.stage2_itb_walker       115692                       # number of ReadReq MSHR uncacheable (Count)
system.cpu.icache.ReadReq.mshrUncacheable::cpu.inst       115692                       # number of ReadReq MSHR uncacheable (Count)
system.cpu.icache.ReadReq.mshrUncacheable::cpu.data       115692                       # number of ReadReq MSHR uncacheable (Count)
system.cpu.icache.ReadReq.mshrUncacheable::pci_ide       115692                       # number of ReadReq MSHR uncacheable (Count)
system.cpu.icache.ReadReq.mshrUncacheable::qkv_clstr.dma       115692                       # number of ReadReq MSHR uncacheable (Count)
system.cpu.icache.ReadReq.mshrUncacheable::qkv_clstr.qkv.system.qkv_clstr.qkv       115692                       # number of ReadReq MSHR uncacheable (Count)
system.cpu.icache.ReadReq.mshrUncacheable::qkv_clstr.top.system.qkv_clstr.top       115692                       # number of ReadReq MSHR uncacheable (Count)
system.cpu.icache.ReadReq.mshrUncacheable::total      1503996                       # number of ReadReq MSHR uncacheable (Count)
system.cpu.icache.ReadReq.mshrUncacheableLatency::writebacks   7659232000                       # number of ReadReq MSHR uncacheable ticks (Tick)
system.cpu.icache.ReadReq.mshrUncacheableLatency::functional   7659232000                       # number of ReadReq MSHR uncacheable ticks (Tick)
system.cpu.icache.ReadReq.mshrUncacheableLatency::interrupt   7659232000                       # number of ReadReq MSHR uncacheable ticks (Tick)
system.cpu.icache.ReadReq.mshrUncacheableLatency::cpu.mmu.dtb_walker   7659232000                       # number of ReadReq MSHR uncacheable ticks (Tick)
system.cpu.icache.ReadReq.mshrUncacheableLatency::cpu.mmu.itb_walker   7659232000                       # number of ReadReq MSHR uncacheable ticks (Tick)
system.cpu.icache.ReadReq.mshrUncacheableLatency::cpu.mmu.stage2_dtb_walker   7659232000                       # number of ReadReq MSHR uncacheable ticks (Tick)
system.cpu.icache.ReadReq.mshrUncacheableLatency::cpu.mmu.stage2_itb_walker   7659232000                       # number of ReadReq MSHR uncacheable ticks (Tick)
system.cpu.icache.ReadReq.mshrUncacheableLatency::cpu.inst   7659232000                       # number of ReadReq MSHR uncacheable ticks (Tick)
system.cpu.icache.ReadReq.mshrUncacheableLatency::cpu.data   7659232000                       # number of ReadReq MSHR uncacheable ticks (Tick)
system.cpu.icache.ReadReq.mshrUncacheableLatency::pci_ide   7659232000                       # number of ReadReq MSHR uncacheable ticks (Tick)
system.cpu.icache.ReadReq.mshrUncacheableLatency::qkv_clstr.dma   7659232000                       # number of ReadReq MSHR uncacheable ticks (Tick)
system.cpu.icache.ReadReq.mshrUncacheableLatency::qkv_clstr.qkv.system.qkv_clstr.qkv   7659232000                       # number of ReadReq MSHR uncacheable ticks (Tick)
system.cpu.icache.ReadReq.mshrUncacheableLatency::qkv_clstr.top.system.qkv_clstr.top   7659232000                       # number of ReadReq MSHR uncacheable ticks (Tick)
system.cpu.icache.ReadReq.mshrUncacheableLatency::total  99570016000                       # number of ReadReq MSHR uncacheable ticks (Tick)
system.cpu.icache.ReadReq.avgMshrUncacheableLatency::writebacks 66203.644159                       # average ReadReq mshr uncacheable latency ((Tick/Count))
system.cpu.icache.ReadReq.avgMshrUncacheableLatency::functional 66203.644159                       # average ReadReq mshr uncacheable latency ((Tick/Count))
system.cpu.icache.ReadReq.avgMshrUncacheableLatency::interrupt 66203.644159                       # average ReadReq mshr uncacheable latency ((Tick/Count))
system.cpu.icache.ReadReq.avgMshrUncacheableLatency::cpu.mmu.dtb_walker 66203.644159                       # average ReadReq mshr uncacheable latency ((Tick/Count))
system.cpu.icache.ReadReq.avgMshrUncacheableLatency::cpu.mmu.itb_walker 66203.644159                       # average ReadReq mshr uncacheable latency ((Tick/Count))
system.cpu.icache.ReadReq.avgMshrUncacheableLatency::cpu.mmu.stage2_dtb_walker 66203.644159                       # average ReadReq mshr uncacheable latency ((Tick/Count))
system.cpu.icache.ReadReq.avgMshrUncacheableLatency::cpu.mmu.stage2_itb_walker 66203.644159                       # average ReadReq mshr uncacheable latency ((Tick/Count))
system.cpu.icache.ReadReq.avgMshrUncacheableLatency::cpu.inst 66203.644159                       # average ReadReq mshr uncacheable latency ((Tick/Count))
system.cpu.icache.ReadReq.avgMshrUncacheableLatency::cpu.data 66203.644159                       # average ReadReq mshr uncacheable latency ((Tick/Count))
system.cpu.icache.ReadReq.avgMshrUncacheableLatency::pci_ide 66203.644159                       # average ReadReq mshr uncacheable latency ((Tick/Count))
system.cpu.icache.ReadReq.avgMshrUncacheableLatency::qkv_clstr.dma 66203.644159                       # average ReadReq mshr uncacheable latency ((Tick/Count))
system.cpu.icache.ReadReq.avgMshrUncacheableLatency::qkv_clstr.qkv.system.qkv_clstr.qkv 66203.644159                       # average ReadReq mshr uncacheable latency ((Tick/Count))
system.cpu.icache.ReadReq.avgMshrUncacheableLatency::qkv_clstr.top.system.qkv_clstr.top 66203.644159                       # average ReadReq mshr uncacheable latency ((Tick/Count))
system.cpu.icache.ReadReq.avgMshrUncacheableLatency::total 66203.644159                       # average ReadReq mshr uncacheable latency ((Tick/Count))
system.cpu.icache.power_state.pwrStateResidencyTicks::UNDEFINED   7545822500                       # Cumulative time (in ticks) in various power states (Tick)
system.cpu.icache.power_state.pwrStateResidencyTicks::ON   7545822500                       # Cumulative time (in ticks) in various power states (Tick)
system.cpu.icache.power_state.pwrStateResidencyTicks::CLK_GATED   7545822500                       # Cumulative time (in ticks) in various power states (Tick)
system.cpu.icache.power_state.pwrStateResidencyTicks::SRAM_RETENTION   7545822500                       # Cumulative time (in ticks) in various power states (Tick)
system.cpu.icache.power_state.pwrStateResidencyTicks::OFF   7545822500                       # Cumulative time (in ticks) in various power states (Tick)
system.cpu.icache.tags.tagsInUse                    0                       # Average ticks per tags in use ((Tick/Count))
system.cpu.icache.tags.totalRefs                    0                       # Total number of references to valid blocks. (Count)
system.cpu.icache.tags.sampledRefs                  0                       # Sample count of references to valid blocks. (Count)
system.cpu.icache.tags.avgRefs                    nan                       # Average number of references to valid blocks. ((Count/Count))
system.cpu.icache.tags.warmupTick                   0                       # The tick when the warmup percentage was hit. (Tick)
system.cpu.icache.tags.tagAccesses                  0                       # Number of tag accesses (Count)
system.cpu.icache.tags.dataAccesses                 0                       # Number of data accesses (Count)
system.cpu.icache.tags.power_state.pwrStateResidencyTicks::UNDEFINED   7545822500                       # Cumulative time (in ticks) in various power states (Tick)
system.cpu.icache.tags.power_state.pwrStateResidencyTicks::ON   7545822500                       # Cumulative time (in ticks) in various power states (Tick)
system.cpu.icache.tags.power_state.pwrStateResidencyTicks::CLK_GATED   7545822500                       # Cumulative time (in ticks) in various power states (Tick)
system.cpu.icache.tags.power_state.pwrStateResidencyTicks::SRAM_RETENTION   7545822500                       # Cumulative time (in ticks) in various power states (Tick)
system.cpu.icache.tags.power_state.pwrStateResidencyTicks::OFF   7545822500                       # Cumulative time (in ticks) in various power states (Tick)
[...]
system.realview.trusted_watchdog.power_state.pwrStateResidencyTicks::UNDEFINED   7545822500                       # Cumulative time (in ticks) in various power states (Tick)
system.realview.trusted_watchdog.power_state.pwrStateResidencyTicks::ON   7545822500                       # Cumulative time (in ticks) in various power states (Tick)
system.realview.trusted_watchdog.power_state.pwrStateResidencyTicks::CLK_GATED   7545822500                       # Cumulative time (in ticks) in various power states (Tick)
system.realview.trusted_watchdog.power_state.pwrStateResidencyTicks::SRAM_RETENTION   7545822500                       # Cumulative time (in ticks) in various power states (Tick)
system.realview.trusted_watchdog.power_state.pwrStateResidencyTicks::OFF   7545822500                       # Cumulative time (in ticks) in various power states (Tick)
system.realview.uart0.power_state.pwrStateResidencyTicks::UNDEFINED   7545822500                       # Cumulative time (in ticks) in various power states (Tick)
system.realview.uart0.power_state.pwrStateResidencyTicks::ON   7545822500                       # Cumulative time (in ticks) in various power states (Tick)
system.realview.uart0.power_state.pwrStateResidencyTicks::CLK_GATED   7545822500                       # Cumulative time (in ticks) in various power states (Tick)
system.realview.uart0.power_state.pwrStateResidencyTicks::SRAM_RETENTION   7545822500                       # Cumulative time (in ticks) in various power states (Tick)
system.realview.uart0.power_state.pwrStateResidencyTicks::OFF   7545822500                       # Cumulative time (in ticks) in various power states (Tick)
system.realview.uart1.power_state.pwrStateResidencyTicks::UNDEFINED   7545822500                       # Cumulative time (in ticks) in various power states (Tick)
system.realview.uart1.power_state.pwrStateResidencyTicks::ON   7545822500                       # Cumulative time (in ticks) in various power states (Tick)
system.realview.uart1.power_state.pwrStateResidencyTicks::CLK_GATED   7545822500                       # Cumulative time (in ticks) in various power states (Tick)
system.realview.uart1.power_state.pwrStateResidencyTicks::SRAM_RETENTION   7545822500                       # Cumulative time (in ticks) in various power states (Tick)
system.realview.uart1.power_state.pwrStateResidencyTicks::OFF   7545822500                       # Cumulative time (in ticks) in various power states (Tick)
system.realview.uart2.power_state.pwrStateResidencyTicks::UNDEFINED   7545822500                       # Cumulative time (in ticks) in various power states (Tick)
system.realview.uart2.power_state.pwrStateResidencyTicks::ON   7545822500                       # Cumulative time (in ticks) in various power states (Tick)
system.realview.uart2.power_state.pwrStateResidencyTicks::CLK_GATED   7545822500                       # Cumulative time (in ticks) in various power states (Tick)
system.realview.uart2.power_state.pwrStateResidencyTicks::SRAM_RETENTION   7545822500                       # Cumulative time (in ticks) in various power states (Tick)
system.realview.uart2.power_state.pwrStateResidencyTicks::OFF   7545822500                       # Cumulative time (in ticks) in various power states (Tick)
system.realview.uart3.power_state.pwrStateResidencyTicks::UNDEFINED   7545822500                       # Cumulative time (in ticks) in various power states (Tick)
system.realview.uart3.power_state.pwrStateResidencyTicks::ON   7545822500                       # Cumulative time (in ticks) in various power states (Tick)
system.realview.uart3.power_state.pwrStateResidencyTicks::CLK_GATED   7545822500                       # Cumulative time (in ticks) in various power states (Tick)
system.realview.uart3.power_state.pwrStateResidencyTicks::SRAM_RETENTION   7545822500                       # Cumulative time (in ticks) in various power states (Tick)
system.realview.uart3.power_state.pwrStateResidencyTicks::OFF   7545822500                       # Cumulative time (in ticks) in various power states (Tick)
system.realview.vgic.power_state.pwrStateResidencyTicks::UNDEFINED   7545822500                       # Cumulative time (in ticks) in various power states (Tick)
system.realview.vgic.power_state.pwrStateResidencyTicks::ON   7545822500                       # Cumulative time (in ticks) in various power states (Tick)
system.realview.vgic.power_state.pwrStateResidencyTicks::CLK_GATED   7545822500                       # Cumulative time (in ticks) in various power states (Tick)
system.realview.vgic.power_state.pwrStateResidencyTicks::SRAM_RETENTION   7545822500                       # Cumulative time (in ticks) in various power states (Tick)
system.realview.vgic.power_state.pwrStateResidencyTicks::OFF   7545822500                       # Cumulative time (in ticks) in various power states (Tick)
system.realview.vio0.power_state.pwrStateResidencyTicks::UNDEFINED   7545822500                       # Cumulative time (in ticks) in various power states (Tick)
system.realview.vio0.power_state.pwrStateResidencyTicks::ON   7545822500                       # Cumulative time (in ticks) in various power states (Tick)
system.realview.vio0.power_state.pwrStateResidencyTicks::CLK_GATED   7545822500                       # Cumulative time (in ticks) in various power states (Tick)
system.realview.vio0.power_state.pwrStateResidencyTicks::SRAM_RETENTION   7545822500                       # Cumulative time (in ticks) in various power states (Tick)
system.realview.vio0.power_state.pwrStateResidencyTicks::OFF   7545822500                       # Cumulative time (in ticks) in various power states (Tick)
system.realview.vio1.power_state.pwrStateResidencyTicks::UNDEFINED   7545822500                       # Cumulative time (in ticks) in various power states (Tick)
system.realview.vio1.power_state.pwrStateResidencyTicks::ON   7545822500                       # Cumulative time (in ticks) in various power states (Tick)
system.realview.vio1.power_state.pwrStateResidencyTicks::CLK_GATED   7545822500                       # Cumulative time (in ticks) in various power states (Tick)
system.realview.vio1.power_state.pwrStateResidencyTicks::SRAM_RETENTION   7545822500                       # Cumulative time (in ticks) in various power states (Tick)
system.realview.vio1.power_state.pwrStateResidencyTicks::OFF   7545822500                       # Cumulative time (in ticks) in various power states (Tick)
system.realview.vram.power_state.pwrStateResidencyTicks::UNDEFINED   7545822500                       # Cumulative time (in ticks) in various power states (Tick)
system.realview.vram.power_state.pwrStateResidencyTicks::ON   7545822500                       # Cumulative time (in ticks) in various power states (Tick)
system.realview.vram.power_state.pwrStateResidencyTicks::CLK_GATED   7545822500                       # Cumulative time (in ticks) in various power states (Tick)
system.realview.vram.power_state.pwrStateResidencyTicks::SRAM_RETENTION   7545822500                       # Cumulative time (in ticks) in various power states (Tick)
system.realview.vram.power_state.pwrStateResidencyTicks::OFF   7545822500                       # Cumulative time (in ticks) in various power states (Tick)
system.realview.watchdog.power_state.pwrStateResidencyTicks::UNDEFINED   7545822500                       # Cumulative time (in ticks) in various power states (Tick)
system.realview.watchdog.power_state.pwrStateResidencyTicks::ON   7545822500                       # Cumulative time (in ticks) in various power states (Tick)
system.realview.watchdog.power_state.pwrStateResidencyTicks::CLK_GATED   7545822500                       # Cumulative time (in ticks) in various power states (Tick)
system.realview.watchdog.power_state.pwrStateResidencyTicks::SRAM_RETENTION   7545822500                       # Cumulative time (in ticks) in various power states (Tick)
system.realview.watchdog.power_state.pwrStateResidencyTicks::OFF   7545822500                       # Cumulative time (in ticks) in various power states (Tick)
system.tol2bus.transDist::InvalidCmd           266812                       # Transaction distribution (Count)
system.tol2bus.transDist::ReadReq              266812                       # Transaction distribution (Count)
system.tol2bus.transDist::ReadResp             266812                       # Transaction distribution (Count)
system.tol2bus.transDist::ReadRespWithInvalidate       266812                       # Transaction distribution (Count)
system.tol2bus.transDist::WriteReq             266812                       # Transaction distribution (Count)
system.tol2bus.transDist::WriteResp            266812                       # Transaction distribution (Count)
system.tol2bus.transDist::WriteCompleteResp       266812                       # Transaction distribution (Count)
system.tol2bus.transDist::WritebackDirty       266812                       # Transaction distribution (Count)
system.tol2bus.transDist::WritebackClean       266812                       # Transaction distribution (Count)
system.tol2bus.transDist::WriteClean           266812                       # Transaction distribution (Count)
system.tol2bus.transDist::CleanEvict           266812                       # Transaction distribution (Count)
system.tol2bus.transDist::SoftPFReq            266812                       # Transaction distribution (Count)
system.tol2bus.transDist::SoftPFExReq          266812                       # Transaction distribution (Count)
system.tol2bus.transDist::HardPFReq            266812                       # Transaction distribution (Count)
system.tol2bus.transDist::SoftPFResp           266812                       # Transaction distribution (Count)
system.tol2bus.transDist::HardPFResp           266812                       # Transaction distribution (Count)
system.tol2bus.transDist::WriteLineReq         266812                       # Transaction distribution (Count)
system.tol2bus.transDist::UpgradeReq           266812                       # Transaction distribution (Count)
system.tol2bus.transDist::SCUpgradeReq         266812                       # Transaction distribution (Count)
system.tol2bus.transDist::UpgradeResp          266812                       # Transaction distribution (Count)
system.tol2bus.transDist::SCUpgradeFailReq       266812                       # Transaction distribution (Count)
system.tol2bus.transDist::UpgradeFailResp       266812                       # Transaction distribution (Count)
system.tol2bus.transDist::ReadExReq            266812                       # Transaction distribution (Count)
system.tol2bus.transDist::ReadExResp           266812                       # Transaction distribution (Count)
system.tol2bus.transDist::ReadCleanReq         266812                       # Transaction distribution (Count)
system.tol2bus.transDist::ReadSharedReq        266812                       # Transaction distribution (Count)
system.tol2bus.transDist::LoadLockedReq        266812                       # Transaction distribution (Count)
system.tol2bus.transDist::StoreCondReq         266812                       # Transaction distribution (Count)
system.tol2bus.transDist::StoreCondFailReq       266812                       # Transaction distribution (Count)
system.tol2bus.transDist::StoreCondResp        266812                       # Transaction distribution (Count)
system.tol2bus.transDist::SwapReq              266812                       # Transaction distribution (Count)
system.tol2bus.transDist::SwapResp             266812                       # Transaction distribution (Count)
system.tol2bus.transDist::Deprecated_MessageReq       266812                       # Transaction distribution (Count)
system.tol2bus.transDist::Deprecated_MessageResp       266812                       # Transaction distribution (Count)
system.tol2bus.transDist::MemFenceReq          266812                       # Transaction distribution (Count)
system.tol2bus.transDist::MemSyncReq           266812                       # Transaction distribution (Count)
system.tol2bus.transDist::MemSyncResp          266812                       # Transaction distribution (Count)
system.tol2bus.transDist::MemFenceResp         266812                       # Transaction distribution (Count)
system.tol2bus.transDist::CleanSharedReq       266812                       # Transaction distribution (Count)
system.tol2bus.transDist::CleanSharedResp       266812                       # Transaction distribution (Count)
system.tol2bus.transDist::CleanInvalidReq       266812                       # Transaction distribution (Count)
system.tol2bus.transDist::CleanInvalidResp       266812                       # Transaction distribution (Count)
system.tol2bus.transDist::InvalidDestError       266812                       # Transaction distribution (Count)
system.tol2bus.transDist::BadAddressError       266812                       # Transaction distribution (Count)
system.tol2bus.transDist::FunctionalReadError       266812                       # Transaction distribution (Count)
system.tol2bus.transDist::FunctionalWriteError       266812                       # Transaction distribution (Count)
system.tol2bus.transDist::PrintReq             266812                       # Transaction distribution (Count)
system.tol2bus.transDist::FlushReq             266812                       # Transaction distribution (Count)
system.tol2bus.transDist::InvalidateReq        266812                       # Transaction distribution (Count)
system.tol2bus.transDist::InvalidateResp       266812                       # Transaction distribution (Count)
system.tol2bus.transDist::HTMReq               266812                       # Transaction distribution (Count)
system.tol2bus.transDist::HTMReqResp           266812                       # Transaction distribution (Count)
system.tol2bus.transDist::HTMAbort             266812                       # Transaction distribution (Count)
system.tol2bus.pktCount_system.cpu.icache.mem_side_port::system.l2.cpu_side_port       266812                       # Packet count per connected requestor and responder (Count)
system.tol2bus.pktCount_system.cpu.dcache.mem_side_port::system.l2.cpu_side_port       266812                       # Packet count per connected requestor and responder (Count)
system.tol2bus.pktCount_system.cpu.mmu.itb_walker.port::system.l2.cpu_side_port       266812                       # Packet count per connected requestor and responder (Count)
system.tol2bus.pktCount_system.cpu.mmu.dtb_walker.port::system.l2.cpu_side_port       266812                       # Packet count per connected requestor and responder (Count)
system.tol2bus.pktCount::total                1067248                       # Packet count per connected requestor and responder (Count)
system.tol2bus.pktSize_system.cpu.icache.mem_side_port::system.l2.cpu_side_port      7475144                       # Cumulative packet size per connected requestor and responder (Byte)
system.tol2bus.pktSize_system.cpu.dcache.mem_side_port::system.l2.cpu_side_port      7475144                       # Cumulative packet size per connected requestor and responder (Byte)
system.tol2bus.pktSize_system.cpu.mmu.itb_walker.port::system.l2.cpu_side_port      7475144                       # Cumulative packet size per connected requestor and responder (Byte)
system.tol2bus.pktSize_system.cpu.mmu.dtb_walker.port::system.l2.cpu_side_port      7475144                       # Cumulative packet size per connected requestor and responder (Byte)
system.tol2bus.pktSize::total                29900576                       # Cumulative packet size per connected requestor and responder (Byte)
system.tol2bus.snoops                               0                       # Total snoops (Count)
system.tol2bus.snoopTraffic                         0                       # Total snoop traffic (Byte)
system.tol2bus.snoopFanout::samples            133406                       # Request fanout histogram
system.tol2bus.snoopFanout::mean                    0                       # Request fanout histogram
system.tol2bus.snoopFanout::stdev                   0                       # Request fanout histogram
system.tol2bus.snoopFanout::underflows              0      0.00%      0.00% # Request fanout histogram
system.tol2bus.snoopFanout::0                  133406    100.00%    100.00% # Request fanout histogram
system.tol2bus.snoopFanout::1                       0      0.00%    100.00% # Request fanout histogram
system.tol2bus.snoopFanout::2                       0      0.00%    100.00% # Request fanout histogram
system.tol2bus.snoopFanout::overflows               0      0.00%    100.00% # Request fanout histogram
system.tol2bus.snoopFanout::min_value               0                       # Request fanout histogram
system.tol2bus.snoopFanout::max_value               0                       # Request fanout histogram
system.tol2bus.snoopFanout::total              133406                       # Request fanout histogram
system.tol2bus.power_state.pwrStateResidencyTicks::UNDEFINED   7545822500                       # Cumulative time (in ticks) in various power states (Tick)
system.tol2bus.power_state.pwrStateResidencyTicks::ON   7545822500                       # Cumulative time (in ticks) in various power states (Tick)
system.tol2bus.power_state.pwrStateResidencyTicks::CLK_GATED   7545822500                       # Cumulative time (in ticks) in various power states (Tick)
system.tol2bus.power_state.pwrStateResidencyTicks::SRAM_RETENTION   7545822500                       # Cumulative time (in ticks) in various power states (Tick)
system.tol2bus.power_state.pwrStateResidencyTicks::OFF   7545822500                       # Cumulative time (in ticks) in various power states (Tick)
system.tol2bus.reqLayer0.occupancy           73589000                       # Layer occupancy (ticks) (Tick)
system.tol2bus.reqLayer0.utilization              0.0                       # Layer utilization (Ratio)
system.tol2bus.respLayer0.occupancy         173538000                       # Layer occupancy (ticks) (Tick)
system.tol2bus.respLayer0.utilization             0.0                       # Layer utilization (Ratio)
system.tol2bus.respLayer1.occupancy          10828000                       # Layer occupancy (ticks) (Tick)
system.tol2bus.respLayer1.utilization             0.0                       # Layer utilization (Ratio)
system.tol2bus.snoop_filter.totRequests             0                       # Total number of requests made to the snoop filter. (Count)
system.tol2bus.snoop_filter.hitSingleRequests            0                       # Number of requests hitting in the snoop filter with a single holder of the requested data. (Count)
system.tol2bus.snoop_filter.hitMultiRequests            0                       # Number of requests hitting in the snoop filter with multiple (>1) holders of the requested data. (Count)
system.tol2bus.snoop_filter.totSnoops               0                       # Total number of snoops made to the snoop filter. (Count)
system.tol2bus.snoop_filter.hitSingleSnoops            0                       # Number of snoops hitting in the snoop filter with a single holder of the requested data. (Count)
system.tol2bus.snoop_filter.hitMultiSnoops            0                       # Number of snoops hitting in the snoop filter with multiple (>1) holders of the requested data. (Count)
system.voltage_domain.voltage                       1                       # Voltage in Volts (Volt)
system.workload.inst.arm                            0                       # number of arm instructions executed (Count)
system.workload.inst.quiesce                        0                       # number of quiesce instructions executed (Count)

---------- End Simulation Statistics   ----------
